
  EPA STORM WATER MANAGEMENT MODEL - VERSION 5.2 (Build 5.2.4)
  PYSWMM TOOLKIT API - VERSION v1.0 (2023-11-27)
  ------------------------------------------------------------

  
  ****************
  Analysis Options
  ****************
  Flow Units ............... CMS
  Process Models:
    Rainfall/Runoff ........ YES
    RDII ................... NO
    Snowmelt ............... NO
    Groundwater ............ NO
    Flow Routing ........... YES
    Ponding Allowed ........ YES
    Water Quality .......... NO
  Infiltration Method ...... HORTON
  Flow Routing Method ...... DYNWAVE
  Surcharge Method ......... EXTRAN
  Starting Date ............ 01/01/2000 08:00:00
  Ending Date .............. 01/01/2000 16:00:00
  Antecedent Dry Days ...... 0.0
  Report Time Step ......... 00:05:00
  Wet Time Step ............ 00:05:00
  Dry Time Step ............ 00:05:00
  Routing Time Step ........ 30.00 sec
  Variable Time Step ....... YES
  Maximum Trials ........... 8
  Number of Threads ........ 1
  Head Tolerance ........... 0.001500 m
  
  
  **************************        Volume         Depth
  Runoff Quantity Continuity     hectare-m            mm
  **************************     ---------       -------
  Total Precipitation ......         3.141        17.428
  Evaporation Loss .........         0.000         0.000
  Infiltration Loss ........         0.000         0.000
  Surface Runoff ...........         3.128        17.358
  Final Storage ............         0.023         0.128
  Continuity Error (%) .....        -0.332
  
  
  **************************        Volume        Volume
  Flow Routing Continuity        hectare-m      10^6 ltr
  **************************     ---------     ---------
  Dry Weather Inflow .......         0.399         3.989
  Wet Weather Inflow .......         3.128        31.279
  Groundwater Inflow .......         0.000         0.000
  RDII Inflow ..............         0.000         0.000
  External Inflow ..........         0.000         0.000
  External Outflow .........         0.629         6.287
  Flooding Loss ............         2.076        20.763
  Evaporation Loss .........         0.000         0.000
  Exfiltration Loss ........         0.000         0.000
  Initial Stored Volume ....         0.000         0.000
  Final Stored Volume ......         0.672         6.724
  Continuity Error (%) .....         4.236
  
  
  *************************
  Highest Continuity Errors
  *************************
  Node T5 (13.00%)
  Node T3 (12.29%)
  Node T2 (7.26%)
  Node T4 (5.66%)
  Node J12 (5.45%)
  
  
  ***************************
  Time-Step Critical Elements
  ***************************
  Link C15 (50.64%)
  
  
  ********************************
  Highest Flow Instability Indexes
  ********************************
  Link C13 (8)
  Link C5 (3)
  Link C6 (3)
  Link C15 (1)
  
  
  *********************************
  Most Frequent Nonconverging Nodes
  *********************************
  Node Out_to_WWTP (2.95%)
  Node CSO7 (1.91%)
  Node J4 (1.51%)
  Node CSO9 (0.72%)
  Node CSO8 (0.16%)
  
  
  *************************
  Routing Time Step Summary
  *************************
  Minimum Time Step           :     0.02 sec
  Average Time Step           :    22.69 sec
  Maximum Time Step           :    30.00 sec
  % of Time in Steady State   :     0.00
  Average Iterations per Step :     2.64
  % of Steps Not Converging   :     2.95
  Time Step Frequencies       :
     30.000 - 13.228 sec      :    72.97 %
     13.228 -  5.833 sec      :    26.63 %
      5.833 -  2.572 sec      :     0.24 %
      2.572 -  1.134 sec      :     0.16 %
      1.134 -  0.500 sec      :     0.00 %
  
  
  ***************************
  Subcatchment Runoff Summary
  ***************************
  
  ------------------------------------------------------------------------------------------------------------------------------
                            Total      Total      Total      Total     Imperv       Perv      Total       Total     Peak  Runoff
                           Precip      Runon       Evap      Infil     Runoff     Runoff     Runoff      Runoff   Runoff   Coeff
  Subcatchment                 mm         mm         mm         mm         mm         mm         mm    10^6 ltr      CMS
  ------------------------------------------------------------------------------------------------------------------------------
  SC01                      15.37       0.00       0.00       0.00      15.35       0.00      15.35        5.07     2.26   0.999
  SC02                      15.06       0.00       0.00       0.00      15.07       0.00      15.07        3.43     1.85   1.001
  SC03                      20.14       0.00       0.00       0.00      20.15       0.00      20.15        3.63     1.03   1.000
  SC04                      15.06       0.00       0.00       0.00      14.93       0.00      14.93        1.03     0.38   0.991
  SC05                      15.37       0.00       0.00       0.00      15.34       0.00      15.34        2.39     1.03   0.998
  SC06                      19.48       0.00       0.00       0.00      19.26       0.00      19.26        6.27     1.10   0.989
  SC07                      15.06       0.00       0.00       0.00      14.93       0.00      14.93        0.71     0.27   0.991
  SC08                      20.14       0.00       0.00       0.00      20.07       0.00      20.07        5.62     1.43   0.996
  SC09                      19.48       0.00       0.00       0.00      19.38       0.00      19.38        1.34     0.26   0.995
  SC010                     15.37       0.00       0.00       0.00      15.31       0.00      15.31        1.80     0.71   0.996
  
  
  ******************
  Node Depth Summary
  ******************
  
  ---------------------------------------------------------------------------------
                                 Average  Maximum  Maximum  Time of Max    Reported
                                   Depth    Depth      HGL   Occurrence   Max Depth
  Node                 Type       Meters   Meters   Meters  days hr:min      Meters
  ---------------------------------------------------------------------------------
  J1                   JUNCTION     0.11     0.34    34.34     0  02:10        0.33
  J3                   JUNCTION     0.14     0.17    18.17     0  03:23        0.17
  CSO7                 JUNCTION     0.40     1.20    35.20     0  01:47        1.20
  J5                   JUNCTION     0.09     0.23    32.23     0  02:06        0.22
  CSO9                 JUNCTION     0.81     2.00    42.00     0  01:17        2.00
  J8                   JUNCTION     0.18     0.36    36.36     0  02:20        0.36
  CSO8                 JUNCTION     0.72     2.00    34.00     0  01:33        2.00
  J10                  JUNCTION     0.16     0.37    29.37     0  01:56        0.36
  J13                  JUNCTION     0.10     0.35    29.35     0  02:05        0.34
  J15                  JUNCTION     0.26     0.55    15.55     0  02:13        0.54
  J16                  JUNCTION     0.11     0.36    30.36     0  02:10        0.35
  CSO10                JUNCTION     0.33     1.00    31.00     0  01:44        1.00
  J12                  JUNCTION     0.72     1.13    27.13     0  02:28        1.12
  J4                   JUNCTION     0.27     0.95    33.95     0  01:47        0.75
  J6                   JUNCTION     0.09     0.12    25.12     0  03:10        0.12
  J2                   JUNCTION     0.07     0.08    25.08     0  03:30        0.08
  J19                  JUNCTION     0.15     0.17     8.17     0  02:01        0.17
  J9                   JUNCTION     0.14     0.16    29.16     0  03:27        0.16
  J14                  JUNCTION     0.16     0.19    20.19     0  06:12        0.19
  J17                  JUNCTION     0.12     0.15    20.15     0  03:09        0.15
  J7                   JUNCTION     0.13     0.23    39.23     0  02:37        0.23
  J11                  JUNCTION     0.16     0.30    31.30     0  02:45        0.30
  J18                  JUNCTION     0.08     0.16    29.16     0  02:39        0.16
  Out_to_WWTP          OUTFALL      0.15     0.17     6.17     0  02:00        0.17
  T5                   STORAGE      3.61     5.00    32.00     0  02:11        5.00
  T4                   STORAGE      2.67     5.00    32.00     0  02:41        5.00
  T6                   STORAGE      3.40     5.00    36.00     0  01:51        5.00
  T3                   STORAGE      3.73     5.00    27.00     0  02:23        5.00
  T2                   STORAGE      2.76     5.00    26.00     0  02:18        5.00
  T1                   STORAGE      3.91     5.00    15.00     0  02:00        5.00
  
  
  *******************
  Node Inflow Summary
  *******************
  
  -------------------------------------------------------------------------------------------------
                                  Maximum  Maximum                  Lateral       Total        Flow
                                  Lateral    Total  Time of Max      Inflow      Inflow     Balance
                                   Inflow   Inflow   Occurrence      Volume      Volume       Error
  Node                 Type           CMS      CMS  days hr:min    10^6 ltr    10^6 ltr     Percent
  -------------------------------------------------------------------------------------------------
  J1                   JUNCTION     1.051    1.051     0  02:10        2.96        2.96       0.015
  J3                   JUNCTION     0.000    0.309     0  02:48           0        6.67       0.735
  CSO7                 JUNCTION     0.276    0.276     0  02:05           1           1       0.058
  J5                   JUNCTION     0.389    0.464     0  02:05        1.16        1.88       0.065
  CSO9                 JUNCTION     0.264    0.264     0  02:00        1.53        1.53       0.035
  J8                   JUNCTION     1.134    1.261     0  02:00        7.22        8.36       0.024
  CSO8                 JUNCTION     1.439    1.439     0  02:10        5.91        5.91       0.014
  J10                  JUNCTION     1.042    1.528     0  01:55        4.01        7.76      -0.050
  J13                  JUNCTION     1.871    1.871     0  02:05         3.9         3.9      -0.130
  J15                  JUNCTION     0.000    2.813     0  02:10           0        16.2       0.733
  J16                  JUNCTION     2.275    2.275     0  02:10        5.62        5.62      -0.036
  CSO10                JUNCTION     0.713    0.713     0  02:10        1.94        1.94       0.027
  J12                  JUNCTION     0.000    1.666     0  01:56           0        11.4       5.760
  J4                   JUNCTION     0.000    0.075     0  02:05           0       0.729       0.505
  J6                   JUNCTION     0.000    0.080     0  02:41           0        1.48       0.361
  J2                   JUNCTION     0.000    0.039     0  02:11           0       0.887       0.597
  J19                  JUNCTION     0.000    0.271     0  02:00           0         6.3       0.201
  J9                   JUNCTION     0.000    0.175     0  01:51           0        3.65       0.495
  J14                  JUNCTION     0.000    0.190     0  02:23           0        4.32       0.231
  J17                  JUNCTION     0.000    0.140     0  02:18           0         2.6       0.438
  J7                   JUNCTION     0.000    0.127     0  02:37           0        1.15       0.275
  J11                  JUNCTION     0.000    0.486     0  02:44           0        3.75       0.179
  J18                  JUNCTION     0.000    0.202     0  02:20           0        1.36       0.020
  Out_to_WWTP          OUTFALL      0.000    0.271     0  02:01           0        6.29       0.000
  T5                   STORAGE      0.000    1.038     0  02:10           0        2.96      14.945
  T4                   STORAGE      0.000    0.458     0  02:06           0        1.88       6.004
  T6                   STORAGE      0.000    1.259     0  02:20           0        8.36       3.122
  T3                   STORAGE      0.000    2.062     0  02:31           0        10.8      14.016
  T2                   STORAGE      0.000    1.842     0  02:05           0        3.91       7.829
  T1                   STORAGE      0.000    2.556     0  02:13           0        16.1       5.391
  
  
  **********************
  Node Surcharge Summary
  **********************
  
  Surcharging occurs when water rises above the top of the highest conduit.
  ---------------------------------------------------------------------
                                               Max. Height   Min. Depth
                                   Hours       Above Crown    Below Rim
  Node                 Type      Surcharged         Meters       Meters
  ---------------------------------------------------------------------
  CSO7                 JUNCTION        1.37          0.945        0.000
  CSO9                 JUNCTION        1.90          1.682        0.000
  CSO8                 JUNCTION        1.63          1.547        0.000
  CSO10                JUNCTION        1.11          0.560        0.000
  J4                   JUNCTION        1.33          0.647        1.053
  
  
  *********************
  Node Flooding Summary
  *********************
  
  Flooding refers to all water that overflows a node, whether it ponds or not.
  --------------------------------------------------------------------------
                                                             Total   Maximum
                                 Maximum   Time of Max       Flood    Ponded
                        Hours       Rate    Occurrence      Volume     Depth
  Node                 Flooded       CMS   days hr:min    10^6 ltr    Meters
  --------------------------------------------------------------------------
  CSO7                    1.10     0.201      0  02:05       0.272     0.000
  CSO9                    1.65     0.136      0  02:00       0.389     0.000
  CSO8                    1.19     0.952      0  02:10       2.162     0.000
  CSO10                   1.00     0.508      0  02:10       0.584     0.000
  T5                      1.62     0.970      0  02:11       1.292     0.000
  T4                      0.69     0.129      0  02:41       0.153     0.000
  T6                      1.94     1.084      0  02:20       4.293     0.000
  T3                      2.41     1.872      0  02:31       2.627     0.000
  T2                      0.86     0.643      0  02:18       0.736     0.000
  T1                      5.91     2.285      0  02:13       8.248     0.000
  
  
  **********************
  Storage Volume Summary
  **********************
  
  ------------------------------------------------------------------------------------------------
                         Average    Avg   Evap  Exfil     Maximum    Max    Time of Max    Maximum
                          Volume   Pcnt   Pcnt   Pcnt      Volume   Pcnt     Occurrence    Outflow
  Storage Unit           1000 m³   Full   Loss   Loss     1000 m³   Full    days hr:min        CMS
  ------------------------------------------------------------------------------------------------
  T5                       0.361   72.1    0.0    0.0       0.500  100.0       0  02:11      0.039
  T4                       0.267   53.4    0.0    0.0       0.500  100.0       0  02:41      0.080
  T6                       0.408   68.1    0.0    0.0       0.600  100.0       0  01:51      0.175
  T3                       1.940   74.6    0.0    0.0       2.600  100.0       0  02:23      0.250
  T2                       0.553   55.3    0.0    0.0       1.000  100.0       0  02:18      0.140
  T1                       0.548   78.2    0.0    0.0       0.700  100.0       0  02:00      0.271
  
  
  ***********************
  Outfall Loading Summary
  ***********************
  
  -----------------------------------------------------------
                         Flow       Avg       Max       Total
                         Freq      Flow      Flow      Volume
  Outfall Node           Pcnt       CMS       CMS    10^6 ltr
  -----------------------------------------------------------
  Out_to_WWTP           99.12     0.224     0.271       6.287
  -----------------------------------------------------------
  System                99.12     0.224     0.271       6.287
  
  
  ********************
  Link Flow Summary
  ********************
  
  -----------------------------------------------------------------------------
                                 Maximum  Time of Max   Maximum    Max/    Max/
                                  |Flow|   Occurrence   |Veloc|    Full    Full
  Link                 Type          CMS  days hr:min     m/sec    Flow   Depth
  -----------------------------------------------------------------------------
  C1                   CONDUIT     0.039     0  03:02      0.92    0.01    0.13
  C6                   CONDUIT     0.075     0  02:05      1.29    1.19    0.88
  C2                   CONDUIT     0.080     0  03:10      1.48    0.09    0.25
  C9                   CONDUIT     0.127     0  02:37      1.28    0.43    0.60
  C16                  CONDUIT     0.489     0  01:38      1.81    0.05    0.17
  C3                   CONDUIT     0.190     0  02:25      2.05    0.07    0.18
  C19                  CONDUIT     0.140     0  02:52      1.24    0.05    0.35
  C11                  CONDUIT     0.309     0  03:23      1.85    0.02    0.18
  C20                  CONDUIT     2.240     0  02:10      4.41    0.07    0.22
  C22                  CONDUIT     0.202     0  02:20      1.51    0.09    0.45
  C12                  CONDUIT     0.175     0  03:14      0.76    0.01    0.32
  C17                  CONDUIT     1.492     0  01:56      3.49    0.07    0.36
  C10                  CONDUIT     1.259     0  02:20      1.66    0.13    0.62
  C13                  CONDUIT     2.062     0  02:31      1.89    0.12    0.78
  C18                  CONDUIT     1.842     0  02:05      3.36    0.07    0.59
  C23                  CONDUIT     2.556     0  02:13      1.99    0.28    0.68
  C4                   CONDUIT     1.038     0  02:10      3.06    0.25    0.67
  C7                   CONDUIT     0.458     0  02:06      1.44    0.11    0.61
  C14                  CONDUIT     0.271     0  02:01      2.08    0.02    0.09
  C5                   CONDUIT     0.075     0  02:05      1.46    1.28    1.00
  C8                   CONDUIT     0.127     0  02:37      1.79    1.60    0.86
  C15                  CONDUIT     0.486     0  02:44      3.43    1.55    0.83
  C21                  CONDUIT     0.202     0  02:20      1.83    1.16    0.69
  V4                   ORIFICE     0.080     0  02:41                      1.00
  V5                   ORIFICE     0.039     0  02:11                      1.00
  V1                   ORIFICE     0.271     0  02:00                      1.00
  V6                   ORIFICE     0.175     0  01:51                      1.00
  V3                   ORIFICE     0.190     0  02:23                      1.00
  V2                   ORIFICE     0.140     0  02:18                      1.00
  
  
  ***************************
  Flow Classification Summary
  ***************************
  
  -------------------------------------------------------------------------------------
                      Adjusted    ---------- Fraction of Time in Flow Class ---------- 
                       /Actual         Up    Down  Sub   Sup   Up    Down  Norm  Inlet 
  Conduit               Length    Dry  Dry   Dry   Crit  Crit  Crit  Crit  Ltd   Ctrl  
  -------------------------------------------------------------------------------------
  C1                      1.00   0.00  0.00  0.00  0.92  0.08  0.00  0.00  0.96  0.00
  C6                      1.00   0.00  0.00  0.00  0.20  0.80  0.00  0.00  0.00  0.00
  C2                      1.00   0.00  0.00  0.00  0.01  0.99  0.00  0.00  0.96  0.00
  C9                      1.00   0.00  0.00  0.00  1.00  0.00  0.00  0.00  1.00  0.00
  C16                     1.00   0.00  0.00  0.00  0.58  0.42  0.00  0.00  0.53  0.00
  C3                      1.00   0.00  0.01  0.00  0.05  0.94  0.00  0.00  0.08  0.00
  C19                     1.00   0.00  0.00  0.00  0.61  0.39  0.00  0.00  1.00  0.00
  C11                     1.00   0.00  0.00  0.00  0.28  0.72  0.00  0.00  1.00  0.00
  C20                     1.00   0.00  0.00  0.00  0.65  0.35  0.00  0.00  0.98  0.00
  C22                     1.00   0.00  0.00  0.00  0.91  0.09  0.00  0.00  1.00  0.00
  C12                     1.00   0.00  0.00  0.00  0.95  0.05  0.00  0.00  1.00  0.00
  C17                     1.00   0.00  0.00  0.00  0.71  0.29  0.00  0.00  0.95  0.00
  C10                     1.00   0.00  0.00  0.00  0.94  0.06  0.00  0.00  0.98  0.00
  C13                     1.00   0.00  0.00  0.00  0.84  0.16  0.00  0.00  0.19  0.00
  C18                     1.00   0.00  0.00  0.00  0.82  0.18  0.00  0.00  0.97  0.00
  C23                     1.00   0.00  0.00  0.00  0.90  0.10  0.00  0.00  0.94  0.00
  C4                      1.00   0.00  0.00  0.00  0.96  0.04  0.00  0.00  0.98  0.00
  C7                      1.00   0.00  0.00  0.00  0.91  0.09  0.00  0.00  0.96  0.00
  C14                     1.00   0.00  0.01  0.00  0.01  0.98  0.00  0.00  0.00  0.00
  C5                      1.00   0.00  0.00  0.00  0.90  0.10  0.00  0.00  0.80  0.00
  C8                      1.00   0.00  0.00  0.00  0.25  0.75  0.00  0.00  0.00  0.00
  C15                     1.00   0.00  0.00  0.00  0.00  1.00  0.00  0.00  0.00  0.00
  C21                     1.00   0.00  0.00  0.00  0.01  0.99  0.00  0.00  0.00  0.00
  
  
  *************************
  Conduit Surcharge Summary
  *************************
  
  ----------------------------------------------------------------------------
                                                           Hours        Hours 
                         --------- Hours Full --------   Above Full   Capacity
  Conduit                Both Ends  Upstream  Dnstream   Normal Flow   Limited
  ----------------------------------------------------------------------------
  C6                          0.01      1.33      0.01      1.25         0.01
  C10                         0.01      0.01      6.31      0.01         0.01
  C13                         0.01      0.01      6.10      0.01         0.01
  C18                         0.01      0.01      4.89      0.01         0.01
  C23                         0.01      0.01      6.28      0.01         0.01
  C4                          0.01      0.01      6.31      0.01         0.01
  C7                          0.01      0.01      6.02      0.01         0.01
  C5                          1.35      1.37      1.45      1.42         1.33
  C8                          0.01      1.89      0.01      1.91         0.01
  C15                         0.01      1.63      0.01      1.67         0.01
  C21                         0.01      1.11      0.01      1.10         0.01
  

  Analysis begun on:  Mon Dec 23 16:41:24 2024
  Analysis ended on:  Mon Dec 23 16:41:24 2024
  Total elapsed time: < 1 sec