
  EPA STORM WATER MANAGEMENT MODEL - VERSION 5.2 (Build 5.2.4)
  PYSWMM TOOLKIT API - VERSION v1.0 (2023-11-27)
  ------------------------------------------------------------

  WARNING 04: minimum elevation drop used for Conduit WS02004404WS02004405
  WARNING 03: negative offset ignored for Link YS02001904YS02001907
  
  ****************
  Analysis Options
  ****************
  Flow Units ............... LPS
  Process Models:
    Rainfall/Runoff ........ YES
    RDII ................... NO
    Snowmelt ............... NO
    Groundwater ............ NO
    Flow Routing ........... YES
    Ponding Allowed ........ NO
    Water Quality .......... NO
  Infiltration Method ...... HORTON
  Flow Routing Method ...... DYNWAVE
  Surcharge Method ......... EXTRAN
  Starting Date ............ 08/28/2015 08:00:00
  Ending Date .............. 08/28/2015 16:00:00
  Antecedent Dry Days ...... 8.0
  Report Time Step ......... 00:01:00
  Wet Time Step ............ 00:01:00
  Dry Time Step ............ 00:01:00
  Routing Time Step ........ 30.00 sec
  Variable Time Step ....... YES
  Maximum Trials ........... 8
  Number of Threads ........ 4
  Head Tolerance ........... 0.001500 m
  
  
  **************************        Volume         Depth
  Runoff Quantity Continuity     hectare-m            mm
  **************************     ---------       -------
  Total Precipitation ......         2.241        67.557
  Evaporation Loss .........         0.000         0.000
  Infiltration Loss ........         0.098         2.950
  Surface Runoff ...........         2.111        63.633
  Final Storage ............         0.033         0.995
  Continuity Error (%) .....        -0.031
  
  
  **************************        Volume        Volume
  Flow Routing Continuity        hectare-m      10^6 ltr
  **************************     ---------     ---------
  Dry Weather Inflow .......         0.025         0.248
  Wet Weather Inflow .......         2.110        21.100
  Groundwater Inflow .......         0.000         0.000
  RDII Inflow ..............         0.000         0.000
  External Inflow ..........         0.083         0.825
  External Outflow .........         1.508        15.082
  Flooding Loss ............         0.720         7.196
  Evaporation Loss .........         0.000         0.000
  Exfiltration Loss ........         0.000         0.000
  Initial Stored Volume ....         0.243         2.431
  Final Stored Volume ......         0.239         2.385
  Continuity Error (%) .....        -0.242
  
  
  *************************
  Highest Continuity Errors
  *************************
  Node YS02001583 (-18.26%)
  Node YS02001884 (5.02%)
  
  
  ***************************
  Time-Step Critical Elements
  ***************************
  Link WS02004404WS02004405 (42.45%)
  Link WS02006238WS02006235 (14.09%)
  Link YS02001791YS02001793 (11.25%)
  Link WS02003066WSF200 (10.55%)
  Link YS02006556YS02006558 (7.32%)
  
  
  ********************************
  Highest Flow Instability Indexes
  ********************************
  Link WS02006113WS02006111 (28)
  Link WS02004404WS02004405 (25)
  Link WS02006238WS02006235 (23)
  Link WS02004403WS02004404 (23)
  Link WS02004405WS02004406 (22)
  
  
  *********************************
  Most Frequent Nonconverging Nodes
  *********************************
  Node CC-1 (10.41%)
  Node CC-2 (10.41%)
  Node JK-1 (10.41%)
  Node JK-2 (10.41%)
  Node WSC (10.41%)
  
  
  *************************
  Routing Time Step Summary
  *************************
  Minimum Time Step           :     0.01 sec
  Average Time Step           :     3.44 sec
  Maximum Time Step           :     6.43 sec
  % of Time in Steady State   :     0.00
  Average Iterations per Step :     3.22
  % of Steps Not Converging   :    10.41
  Time Step Frequencies       :
     30.000 - 13.228 sec      :     0.00 %
     13.228 -  5.833 sec      :    22.29 %
      5.833 -  2.572 sec      :    27.37 %
      2.572 -  1.134 sec      :    41.84 %
      1.134 -  0.500 sec      :     8.50 %
  
  
  ***************************
  Subcatchment Runoff Summary
  ***************************
  
  ------------------------------------------------------------------------------------------------------------------------------
                            Total      Total      Total      Total     Imperv       Perv      Total       Total     Peak  Runoff
                           Precip      Runon       Evap      Infil     Runoff     Runoff     Runoff      Runoff   Runoff   Coeff
  Subcatchment                 mm         mm         mm         mm         mm         mm         mm    10^6 ltr      LPS
  ------------------------------------------------------------------------------------------------------------------------------
  sub60                     67.56       0.00       0.00       1.80      58.25       6.31      64.57        0.85   581.77   0.956
  sub61                     67.56       0.00       0.00       2.60      54.95       8.89      63.84        1.17   801.57   0.945
  sub62                     67.56       0.00       0.00       1.20      60.87       4.21      65.08        1.78  1116.34   0.963
  sub63                     67.56       0.00       0.00       4.76      47.00      14.84      61.84        1.40   872.63   0.915
  sub64                     67.56       0.00       0.00       2.41      56.22       7.73      63.95        1.54   893.05   0.947
  sub65                     67.56       0.00       0.00       2.09      57.53       6.70      64.22        1.77   991.34   0.951
  sub66                     67.56       0.00       0.00       5.83      46.89      13.76      60.66        2.83  1254.86   0.898
  sub67                     67.56       0.00       0.00       1.16      60.92       4.25      65.16        1.21   892.79   0.965
  sub68                     67.56       0.00       0.00       2.15      56.92       7.31      64.23        1.77  1148.85   0.951
  sub69                     67.56       0.00       0.00       1.90      57.32       8.24      65.56        2.43  1329.97   0.970
  sub70                     67.56       0.00       0.00       6.25      44.43      16.72      61.14        1.77   705.77   0.905
  sub71                     67.56       0.00       0.00       1.23      60.83       4.18      65.01        1.70   967.60   0.962
  sub72                     67.56       0.00       0.00       1.09      61.43       3.64      65.07        0.89   459.94   0.963
  
  
  ******************
  Node Depth Summary
  ******************
  
  ---------------------------------------------------------------------------------
                                 Average  Maximum  Maximum  Time of Max    Reported
                                   Depth    Depth      HGL   Occurrence   Max Depth
  Node                 Type       Meters   Meters   Meters  days hr:min      Meters
  ---------------------------------------------------------------------------------
  WS02003060           JUNCTION     0.21     0.38     5.32     0  02:14        0.38
  WS02003066           JUNCTION     0.17     0.30     5.85     0  02:13        0.30
  WS02003067           JUNCTION     0.46     0.70     6.02     0  02:13        0.70
  WS02003069           JUNCTION     0.23     0.43     5.02     0  02:14        0.43
  WS02003072           JUNCTION     0.29     0.50     4.87     0  02:15        0.50
  WS02003073           JUNCTION     0.16     0.30     4.36     0  02:16        0.30
  WS02004401           JUNCTION     0.56     0.88     6.88     0  02:09        0.88
  WS02004402           JUNCTION     0.59     0.91     6.87     0  02:09        0.90
  WS02004403           JUNCTION     0.61     0.93     6.86     0  02:09        0.92
  WS02004404           JUNCTION     0.69     1.08     6.93     0  02:09        1.05
  WS02004405           JUNCTION     0.67     0.97     6.82     0  02:08        0.97
  WS02004406           JUNCTION     0.68     0.96     6.79     0  02:35        0.96
  WS02004407           JUNCTION     0.15     0.30     6.61     0  02:11        0.30
  WS02004409           JUNCTION     0.34     0.67     6.44     0  02:12        0.67
  WS02004410           JUNCTION     0.37     0.68     6.40     0  02:12        0.68
  WS02004411           JUNCTION     0.39     0.69     6.37     0  02:12        0.69
  WS02004412           JUNCTION     0.42     0.70     6.34     0  02:12        0.70
  WS02004413           JUNCTION     0.57     0.86     6.33     0  02:13        0.86
  WS02006109           JUNCTION     0.61     1.07     7.69     0  01:46        1.00
  WS02006110           JUNCTION     0.61     1.06     7.65     0  01:46        0.92
  WS02006111           JUNCTION     0.16     0.29     6.99     0  02:15        0.29
  WS02006112           JUNCTION     0.71     1.09     6.97     0  02:18        1.08
  WS02006113           JUNCTION     0.24     0.46     7.35     0  01:47        0.45
  WS02006115           JUNCTION     0.44     0.78     6.92     0  02:10        0.78
  WS02006116           JUNCTION     0.53     0.86     6.90     0  02:09        0.86
  WS02006228           JUNCTION     0.61     1.10     7.75     0  01:46        1.09
  WS02006229           JUNCTION     0.59     1.12     7.81     0  01:45        1.11
  WS02006230           JUNCTION     0.60     1.25     7.99     0  01:45        1.24
  WS02006231           JUNCTION     0.40     0.99     8.11     0  01:46        0.99
  WS02006232           JUNCTION     0.54     1.19     8.23     0  01:46        1.19
  WS02006234           JUNCTION     0.48     1.20     8.36     0  01:46        1.20
  WS02006235           JUNCTION     0.52     1.29     8.45     0  01:46        1.28
  WS02006238           JUNCTION     0.55     1.32     8.46     0  01:46        1.31
  WS02006239           JUNCTION     0.51     1.29     8.50     0  01:46        1.28
  WS02006240           JUNCTION     0.49     1.25     8.54     0  01:46        1.23
  WS02006242           JUNCTION     0.54     1.31     8.58     0  01:46        1.30
  WS02006243           JUNCTION     0.46     1.21     8.63     0  02:03        1.18
  WS02006245           JUNCTION     0.46     1.18     8.66     0  02:03        1.17
  WS02006247           JUNCTION     0.47     1.20     8.70     0  02:10        1.20
  WS02006248           JUNCTION     0.44     1.10     8.69     0  02:03        1.09
  WS02006249           JUNCTION     0.46     1.09     8.69     0  01:44        1.09
  WS02006251           JUNCTION     0.46     1.40     9.07     0  01:45        1.12
  WS02006252           JUNCTION     0.29     1.50     9.74     0  00:00        0.82
  WS02006256           JUNCTION     1.23     2.35     9.28     0  00:00        2.35
  WSF200               JUNCTION     0.15     0.29     5.53     0  02:13        0.29
  YS02001580           JUNCTION     0.15     1.05     9.59     0  01:35        0.96
  YS02001583           JUNCTION     0.19     1.14     9.64     0  01:35        0.97
  YS02001586           JUNCTION     0.29     1.13     9.30     0  01:34        1.13
  YS02001590           JUNCTION     0.41     1.40     9.26     0  01:34        1.37
  YS02001593           JUNCTION     0.34     1.36     9.22     0  01:34        1.35
  YS02001596           JUNCTION     0.46     1.80     9.22     0  02:03        1.80
  YS02001600           JUNCTION     0.55     1.87     9.00     0  01:34        1.87
  YS02001601           JUNCTION     0.74     2.06     8.90     0  01:34        2.06
  YS02001602           JUNCTION     0.64     1.87     8.77     0  01:35        1.87
  YS02001605           JUNCTION     0.60     1.78     8.68     0  01:35        1.78
  YS02001607           JUNCTION     0.57     1.68     8.53     0  01:35        1.68
  YS02001610           JUNCTION     0.61     1.68     8.48     0  01:35        1.68
  YS02001613           JUNCTION     0.57     1.70     8.54     0  01:35        1.70
  YS02001616           JUNCTION     0.50     1.61     8.52     0  01:35        1.61
  YS02001619           JUNCTION     0.48     1.61     8.54     0  01:35        1.61
  YS02001622           JUNCTION     0.47     1.62     8.52     0  02:10        1.62
  YS02001625           JUNCTION     0.72     1.78     8.38     0  01:35        1.78
  YS02001629           JUNCTION     0.62     1.85     8.40     0  01:35        1.85
  YS02001633           JUNCTION     0.69     2.08     8.53     0  02:10        2.08
  YS02001641           JUNCTION     0.66     2.08     8.52     0  02:10        2.08
  YS02001644           JUNCTION     0.66     1.92     8.35     0  01:37        1.92
  YS02001647           JUNCTION     0.45     1.83     8.44     0  01:37        1.76
  YS02001649           JUNCTION     0.51     2.05     8.44     0  01:37        1.99
  YS02001652           JUNCTION     0.39     2.16     8.76     0  01:37        1.85
  YS02001655           JUNCTION     0.31     2.19     9.04     0  01:37        1.66
  YS02001658           JUNCTION     0.22     2.27     9.41     0  01:37        1.43
  YS02001661           JUNCTION     0.21     2.24     9.64     0  01:37        1.24
  YS02001664           JUNCTION     0.08     1.00     8.92     0  01:38        0.75
  YS02001745           JUNCTION     0.11     2.35     9.87     0  01:37        0.90
  YS02001748           JUNCTION     0.21     2.27     9.35     0  01:37        1.30
  YS02001751           JUNCTION     0.26     2.20     9.08     0  01:37        1.47
  YS02001754           JUNCTION     0.35     2.20     8.81     0  01:37        1.71
  YS02001757           JUNCTION     0.52     2.21     8.47     0  01:37        2.02
  YS02001759           JUNCTION     0.47     2.21     8.57     0  01:37        2.02
  YS02001762           JUNCTION     0.46     2.15     8.55     0  01:37        2.00
  YS02001765           JUNCTION     0.44     2.10     8.55     0  01:37        1.96
  YS02001767           JUNCTION     0.43     2.03     8.52     0  01:37        1.94
  YS02001770           JUNCTION     0.44     1.95     8.44     0  01:36        1.95
  YS02001774           JUNCTION     0.50     2.01     8.43     0  01:36        2.00
  YS02001779           JUNCTION     0.33     1.68     8.37     0  01:36        1.68
  YS02001783           JUNCTION     0.33     1.33     7.47     0  01:36        1.23
  YS02001784           JUNCTION     0.34     1.29     7.36     0  01:36        1.16
  YS02001786           JUNCTION     0.28     1.23     7.26     0  01:36        0.87
  YS02001788           JUNCTION     0.20     0.64     6.62     0  01:36        0.62
  YS02001790           JUNCTION     0.24     0.73     6.37     0  01:37        0.72
  YS02001791           JUNCTION     0.15     0.44     5.91     0  01:44        0.43
  YS02001793           JUNCTION     0.08     0.30     5.14     0  01:36        0.30
  YS02001882           JUNCTION     0.41     1.83     8.55     0  02:03        1.83
  YS02001884           JUNCTION     0.50     1.93     8.55     0  02:03        1.93
  YS02001887           JUNCTION     0.57     1.90     8.43     0  01:35        1.88
  YS02001890           JUNCTION     0.60     1.81     8.32     0  01:35        1.81
  YS02001895           JUNCTION     0.38     1.72     8.47     0  01:35        1.56
  YS02001898           JUNCTION     0.39     1.77     8.51     0  01:35        1.56
  YS02001901           JUNCTION     0.50     1.74     8.35     0  01:35        1.67
  YS02001904           JUNCTION     0.48     1.64     8.27     0  01:36        1.64
  YS02001907           JUNCTION     0.78     1.96     8.25     0  01:36        1.96
  YS02001910           JUNCTION     0.60     2.00     8.51     0  01:36        1.98
  YS02001915           JUNCTION     0.42     1.96     8.68     0  01:36        1.94
  YS02001918           JUNCTION     0.25     1.81     8.88     0  01:36        1.81
  YS02001920           JUNCTION     0.33     2.13     9.14     0  01:36        2.09
  YS02001923           JUNCTION     0.20     2.03     9.29     0  01:36        2.02
  YS02001926           JUNCTION     0.22     1.90     9.35     0  01:36        1.90
  YS02001929           JUNCTION     0.14     1.78     9.47     0  01:36        1.78
  YS02006553           JUNCTION     0.79     1.98     8.27     0  01:36        1.98
  YS02006556           JUNCTION     0.76     1.98     8.29     0  01:36        1.97
  YS02006558           JUNCTION     0.80     2.03     8.30     0  01:37        2.03
  YS02006561           JUNCTION     0.21     1.03     7.69     0  01:36        0.90
  YS02163301           JUNCTION     0.64     2.03     8.55     0  02:10        2.03
  YS02163601           JUNCTION     0.72     2.08     8.48     0  02:03        2.08
  YS02164001           JUNCTION     0.65     2.10     8.56     0  02:10        2.10
  CC-1                 OUTFALL      0.00     0.00     0.00     0  00:00        0.00
  CC-2                 OUTFALL      0.00     0.00     0.00     0  00:00        0.00
  JK-1                 OUTFALL      0.00     0.00     0.00     0  00:00        0.00
  JK-2                 OUTFALL      0.00     0.00     0.00     0  00:00        0.00
  WSC                  OUTFALL      0.16     0.30     0.97     0  02:16        0.30
  CC-storage           STORAGE      0.91     1.67     7.17     0  02:13        1.67
  JK-storage           STORAGE      2.26     4.24     5.04     0  01:36        4.20
  
  
  *******************
  Node Inflow Summary
  *******************
  
  -------------------------------------------------------------------------------------------------
                                  Maximum  Maximum                  Lateral       Total        Flow
                                  Lateral    Total  Time of Max      Inflow      Inflow     Balance
                                   Inflow   Inflow   Occurrence      Volume      Volume       Error
  Node                 Type           LPS      LPS  days hr:min    10^6 ltr    10^6 ltr     Percent
  -------------------------------------------------------------------------------------------------
  WS02003060           JUNCTION     16.53   557.86     0  02:13       0.471        4.28       0.044
  WS02003066           JUNCTION      0.00   540.75     0  02:13           0        3.81       0.033
  WS02003067           JUNCTION      0.00   540.68     0  02:13           0        3.82       0.104
  WS02003069           JUNCTION      0.32   557.65     0  02:14     0.00912        4.29       0.079
  WS02003072           JUNCTION      0.00   557.42     0  02:15           0        4.29       0.149
  WS02003073           JUNCTION      1.82   559.16     0  02:15      0.0519        4.33       0.112
  WS02004401           JUNCTION      0.00   543.20     0  02:36           0         3.9       0.254
  WS02004402           JUNCTION      0.00   550.60     0  02:09           0         3.9       0.258
  WS02004403           JUNCTION      0.00   550.68     0  02:09           0        3.89       0.248
  WS02004404           JUNCTION      0.16   568.78     0  02:11     0.00462        3.88       0.056
  WS02004405           JUNCTION      0.04   613.29     0  02:11     0.00109        3.88       0.259
  WS02004406           JUNCTION      0.00   548.75     0  02:11           0        3.87       0.530
  WS02004407           JUNCTION      0.00   542.89     0  02:35           0        3.85       0.021
  WS02004409           JUNCTION      0.00   542.28     0  02:11           0        3.85       0.055
  WS02004410           JUNCTION      0.00   541.72     0  02:12           0        3.85       0.102
  WS02004411           JUNCTION      0.00   541.60     0  02:12           0        3.84       0.132
  WS02004412           JUNCTION      0.00   540.87     0  02:12           0        3.84       0.181
  WS02004413           JUNCTION      0.00   541.20     0  02:12           0        3.83       0.333
  WS02006109           JUNCTION      1.23   552.24     0  01:46      0.0351        3.95       0.230
  WS02006110           JUNCTION      0.00   552.38     0  01:46           0        3.94       0.158
  WS02006111           JUNCTION      0.00   560.10     0  02:20           0        3.93       0.021
  WS02006112           JUNCTION      0.00   542.03     0  02:15           0        3.93       0.503
  WS02006113           JUNCTION      0.00   567.69     0  01:46           0        3.93       0.036
  WS02006115           JUNCTION      0.00   550.29     0  01:51           0        3.91       0.160
  WS02006116           JUNCTION      0.00   544.37     0  02:28           0        3.91       0.010
  WS02006228           JUNCTION      0.00   551.46     0  01:46           0        3.92       0.091
  WS02006229           JUNCTION      0.00   551.30     0  01:46           0        3.92       0.139
  WS02006230           JUNCTION     10.28   563.70     0  01:45       0.293        3.93       0.134
  WS02006231           JUNCTION      0.00   555.04     0  01:45           0        3.63      -0.068
  WS02006232           JUNCTION      0.00   555.13     0  01:45           0        3.64       0.249
  WS02006234           JUNCTION      0.00   555.71     0  01:45           0        3.63      -0.189
  WS02006235           JUNCTION      0.00   557.40     0  01:45           0        3.72       0.231
  WS02006238           JUNCTION      0.00   421.70     0  03:14           0        2.43      -0.129
  WS02006239           JUNCTION      0.00   421.19     0  03:14           0        2.39      -0.074
  WS02006240           JUNCTION      0.00   419.26     0  03:14           0        2.35      -0.068
  WS02006242           JUNCTION      0.00   418.98     0  03:14           0        2.32      -0.043
  WS02006243           JUNCTION      0.00   418.45     0  03:14           0         2.3      -0.144
  WS02006245           JUNCTION      0.00   418.48     0  03:14           0         2.3       0.366
  WS02006247           JUNCTION      0.00   418.21     0  03:14           0        2.29       0.008
  WS02006248           JUNCTION      0.00   417.86     0  03:14           0        2.29       0.076
  WS02006249           JUNCTION      0.00   459.02     0  00:00           0        2.67       0.192
  WS02006251           JUNCTION      0.08   405.57     0  01:45     0.00219        2.67      -0.016
  WS02006252           JUNCTION      0.00   400.00     0  00:00           0        2.67      -0.016
  WS02006256           JUNCTION      0.00   300.00     0  00:00           0        1.97      -0.144
  WSF200               JUNCTION      0.00   540.84     0  02:13           0        3.81       0.008
  YS02001580           JUNCTION      0.00   234.99     0  01:35           0     0.00426      -5.180
  YS02001583           JUNCTION      0.00   278.93     0  01:35           0      0.0141     -15.438
  YS02001586           JUNCTION    705.77   705.77     0  01:42        1.77        1.78       0.101
  YS02001590           JUNCTION      0.00   318.32     0  02:03           0        1.37      -0.028
  YS02001593           JUNCTION      0.00   318.50     0  02:03           0        1.37      -0.004
  YS02001596           JUNCTION      0.00   318.38     0  02:03           0        1.37      -0.012
  YS02001600           JUNCTION      0.00   319.16     0  02:03           0        1.37      -0.005
  YS02001601           JUNCTION   1329.97  1647.45     0  01:40        2.43         3.8       0.017
  YS02001602           JUNCTION      0.00   587.74     0  01:35           0        2.29       0.015
  YS02001605           JUNCTION      0.00   587.86     0  01:34           0        2.16       0.014
  YS02001607           JUNCTION      0.00   587.58     0  01:35           0        2.16       0.077
  YS02001610           JUNCTION      0.00   680.96     0  01:42           0        2.39       0.084
  YS02001613           JUNCTION      0.00   523.70     0  01:35           0        1.86       0.070
  YS02001616           JUNCTION      0.00   459.26     0  01:34           0        1.86       0.006
  YS02001619           JUNCTION   1254.86  1254.86     0  01:42        2.83        4.46      -0.011
  YS02001622           JUNCTION      0.00   932.82     0  01:38           0        4.23      -0.004
  YS02001625           JUNCTION      0.00  1301.87     0  01:43           0        4.43       0.204
  YS02001629           JUNCTION      0.00   817.32     0  02:09           0        3.42      -0.006
  YS02001633           JUNCTION    991.54  1364.68     0  01:36        1.77        4.93       0.068
  YS02001641           JUNCTION      0.00  1354.07     0  01:36           0        4.69       0.059
  YS02001644           JUNCTION    893.09  1945.40     0  01:36        1.54        6.22       0.047
  YS02001647           JUNCTION      0.00  1947.46     0  01:36           0        5.83       0.004
  YS02001649           JUNCTION      0.00  2243.81     0  01:36           0        7.24       0.013
  YS02001652           JUNCTION      0.00  1056.82     0  01:38           0        1.41      -0.075
  YS02001655           JUNCTION      0.15  1056.09     0  01:38     0.00439        1.41      -0.148
  YS02001658           JUNCTION      0.00  1055.21     0  01:38           0         1.4      -0.088
  YS02001661           JUNCTION      0.00  1053.74     0  01:38           0         1.4       0.029
  YS02001664           JUNCTION    872.63   872.63     0  01:39         1.4         1.4      -0.015
  YS02001745           JUNCTION    581.78   653.73     0  01:37       0.848       0.849       0.225
  YS02001748           JUNCTION      0.04  1007.93     0  01:37     0.00128       0.853      -0.492
  YS02001751           JUNCTION      0.01   672.82     0  01:38    0.000313       0.863       0.145
  YS02001754           JUNCTION      0.26   672.99     0  01:38     0.00741       0.872      -0.238
  YS02001757           JUNCTION      0.00  3590.62     0  01:38           0        10.9       0.047
  YS02001759           JUNCTION    801.61  1472.01     0  01:37        1.17        2.77      -0.009
  YS02001762           JUNCTION      0.00   735.75     0  01:47           0         1.6      -0.001
  YS02001765           JUNCTION      0.00   735.27     0  01:47           0         1.6       0.018
  YS02001767           JUNCTION      0.54   734.62     0  01:47      0.0152         1.6      -0.008
  YS02001770           JUNCTION   1116.49  1116.49     0  01:39        1.79        1.83       0.020
  YS02001774           JUNCTION      0.00   712.45     0  01:36           0       0.269       0.306
  YS02001779           JUNCTION      0.01   705.56     0  01:36    0.000142       0.225      -0.843
  YS02001783           JUNCTION      0.00  1171.12     0  01:37           0        4.11       0.005
  YS02001784           JUNCTION      1.06  1171.74     0  01:37      0.0302        4.14       0.013
  YS02001786           JUNCTION      0.06  1172.07     0  01:37      0.0016        4.14       0.015
  YS02001788           JUNCTION      0.07  1171.33     0  01:37     0.00202        4.14       0.007
  YS02001790           JUNCTION      0.15  1209.91     0  01:36     0.00442        4.15       0.025
  YS02001791           JUNCTION      0.00  1300.26     0  01:37           0        4.15      -0.024
  YS02001793           JUNCTION      0.00  1251.77     0  01:43           0        4.15       0.004
  YS02001882           JUNCTION      0.00   125.93     0  01:35           0      0.0131       3.913
  YS02001884           JUNCTION      0.00   178.14     0  01:35           0      0.0492       5.289
  YS02001887           JUNCTION    893.24   893.41     0  01:38        1.22        1.26       0.345
  YS02001890           JUNCTION      0.00   893.20     0  01:38           0        1.22       0.422
  YS02001895           JUNCTION      0.00   577.78     0  01:36           0        1.08       0.125
  YS02001898           JUNCTION      0.00   577.65     0  01:36           0        1.08      -0.011
  YS02001901           JUNCTION      0.00   575.73     0  01:36           0        1.08       0.329
  YS02001904           JUNCTION      0.00   576.63     0  01:36           0        1.09       0.266
  YS02001907           JUNCTION      0.00  1967.55     0  01:40           0        3.76       0.487
  YS02001910           JUNCTION      0.00  1448.65     0  01:40           0        2.68       0.271
  YS02001915           JUNCTION    967.62  1448.45     0  01:40         1.7        2.73       0.053
  YS02001918           JUNCTION      0.00   917.89     0  01:36           0        1.07      -0.060
  YS02001920           JUNCTION      2.87   840.34     0  01:36      0.0818        1.04       0.105
  YS02001923           JUNCTION      0.04  1159.10     0  01:36     0.00107       0.936      -0.175
  YS02001926           JUNCTION      0.05  1484.55     0  01:36     0.00149       0.914      -0.214
  YS02001929           JUNCTION    459.94  1147.52     0  01:36       0.895       0.902      -0.403
  YS02006553           JUNCTION      0.00   813.25     0  02:03           0        2.38       0.509
  YS02006556           JUNCTION      0.00   811.12     0  02:03           0        2.39       0.348
  YS02006558           JUNCTION   1149.73  1205.10     0  01:35        1.79        4.15       0.090
  YS02006561           JUNCTION      0.00  1211.79     0  01:35           0        4.11      -0.009
  YS02163301           JUNCTION      0.00   818.06     0  02:09           0        3.41       0.040
  YS02163601           JUNCTION      0.11  1362.52     0  01:36     0.00313        4.68       0.103
  YS02164001           JUNCTION      0.00  1359.61     0  01:36           0        4.68       0.050
  CC-1                 OUTFALL       0.00   683.00     0  00:00           0        4.37       0.000
  CC-2                 OUTFALL       0.00   683.00     0  00:00           0        4.18       0.000
  JK-1                 OUTFALL       0.00  1000.00     0  00:00           0        2.16       0.000
  JK-2                 OUTFALL       0.00  1000.00     0  00:00           0      0.0484       0.000
  WSC                  OUTFALL       0.00   559.00     0  02:16           0        4.33       0.000
  CC-storage           STORAGE       0.00  3590.82     0  01:38           0        13.1      -0.151
  JK-storage           STORAGE       0.00  1281.01     0  01:43           0         4.3      -0.081
  
  
  **********************
  Node Surcharge Summary
  **********************
  
  Surcharging occurs when water rises above the top of the highest conduit.
  ---------------------------------------------------------------------
                                               Max. Height   Min. Depth
                                   Hours       Above Crown    Below Rim
  Node                 Type      Surcharged         Meters       Meters
  ---------------------------------------------------------------------
  WS02004404           JUNCTION        0.13          0.079        2.701
  WS02006109           JUNCTION        1.64          0.251        1.569
  WS02006110           JUNCTION        1.46          0.152        1.698
  WS02006112           JUNCTION        1.41          0.089        1.591
  WS02006228           JUNCTION        1.64          0.273        1.927
  WS02006229           JUNCTION        1.65          0.315        2.135
  WS02006230           JUNCTION        1.46          0.169        1.401
  WS02006231           JUNCTION        1.48          0.280        1.250
  WS02006232           JUNCTION        1.67          0.487        0.993
  WS02006234           JUNCTION        1.53          0.480        0.760
  WS02006235           JUNCTION        1.65          0.575        0.715
  WS02006238           JUNCTION        1.66          0.595        0.835
  WS02006239           JUNCTION        1.65          0.554        0.736
  WS02006240           JUNCTION        1.65          0.537        0.853
  WS02006242           JUNCTION        1.66          0.580        0.240
  WS02006243           JUNCTION        1.64          0.495        0.275
  WS02006245           JUNCTION        1.64          0.467        0.383
  WS02006247           JUNCTION        1.64          0.495        0.265
  WS02006248           JUNCTION        1.63          0.380        0.000
  WS02006249           JUNCTION        1.63          0.390        0.000
  WS02006251           JUNCTION        1.49          0.371        0.809
  WS02006252           JUNCTION        1.83          1.100        0.000
  WS02006256           JUNCTION        3.48          2.050        0.000
  YS02001580           JUNCTION        0.66          0.450        0.000
  YS02001583           JUNCTION        0.66          0.500        0.000
  YS02001586           JUNCTION        0.82          0.510        0.000
  YS02001590           JUNCTION        0.89          0.750        0.000
  YS02001593           JUNCTION        0.89          0.741        0.099
  YS02001596           JUNCTION        0.99          1.070        0.000
  YS02001600           JUNCTION        1.13          1.190        0.000
  YS02001601           JUNCTION        1.54          1.440        0.000
  YS02001602           JUNCTION        1.39          1.270        0.000
  YS02001605           JUNCTION        1.33          1.180        0.000
  YS02001607           JUNCTION        0.87          0.680        0.000
  YS02001610           JUNCTION        0.90          0.680        0.000
  YS02001613           JUNCTION        0.87          0.700        0.000
  YS02001616           JUNCTION        0.83          0.610        0.000
  YS02001619           JUNCTION        0.81          0.610        0.000
  YS02001622           JUNCTION        0.81          0.620        0.000
  YS02001625           JUNCTION        0.99          0.780        0.000
  YS02001629           JUNCTION        0.76          0.470        0.000
  YS02001633           JUNCTION        1.01          1.060        0.000
  YS02001641           JUNCTION        0.98          1.081        0.019
  YS02001644           JUNCTION        0.95          0.920        0.000
  YS02001647           JUNCTION        0.76          0.826        0.074
  YS02001649           JUNCTION        0.90          1.050        0.000
  YS02001652           JUNCTION        0.67          1.130        0.000
  YS02001655           JUNCTION        0.48          1.190        0.010
  YS02001658           JUNCTION        0.23          1.265        0.035
  YS02001661           JUNCTION        0.02          1.166        0.224
  YS02001745           JUNCTION        0.01          1.350        0.000
  YS02001748           JUNCTION        0.16          1.190        0.000
  YS02001751           JUNCTION        0.33          1.200        0.000
  YS02001754           JUNCTION        0.57          1.150        0.000
  YS02001757           JUNCTION        0.97          1.210        0.000
  YS02001759           JUNCTION        0.87          1.210        0.000
  YS02001762           JUNCTION        0.83          1.150        0.000
  YS02001765           JUNCTION        0.78          1.100        0.000
  YS02001767           JUNCTION        0.74          1.030        0.000
  YS02001770           JUNCTION        0.71          0.920        0.000
  YS02001774           JUNCTION        0.81          1.008        0.042
  YS02001779           JUNCTION        0.54          0.680        0.000
  YS02001783           JUNCTION        0.58          0.532        1.068
  YS02001784           JUNCTION        0.55          0.487        1.003
  YS02001786           JUNCTION        0.45          0.429        1.001
  YS02001882           JUNCTION        0.52          0.830        0.000
  YS02001884           JUNCTION        0.53          0.870        0.000
  YS02001887           JUNCTION        0.57          0.846        0.104
  YS02001890           JUNCTION        0.58          0.760        0.000
  YS02001895           JUNCTION        0.51          0.720        0.030
  YS02001898           JUNCTION        0.51          0.740        0.000
  YS02001901           JUNCTION        0.55          0.738        0.132
  YS02001904           JUNCTION        0.54          0.643        0.207
  YS02001907           JUNCTION        0.75          0.950        0.000
  YS02001910           JUNCTION        0.60          1.001        0.099
  YS02001915           JUNCTION        0.52          0.964        0.036
  YS02001918           JUNCTION        0.44          0.810        0.000
  YS02001920           JUNCTION        0.45          1.127        0.013
  YS02001923           JUNCTION        0.12          0.820        0.000
  YS02001926           JUNCTION        0.15          0.900        0.000
  YS02001929           JUNCTION        0.01          0.780        0.000
  YS02006553           JUNCTION        0.77          0.984        0.206
  YS02006556           JUNCTION        0.68          0.941        0.409
  YS02006558           JUNCTION        0.67          0.934        0.466
  YS02006561           JUNCTION        0.41          0.232        0.918
  YS02163301           JUNCTION        1.00          1.030        0.000
  YS02163601           JUNCTION        1.04          1.080        0.000
  YS02164001           JUNCTION        0.98          1.100        0.000
  
  
  *********************
  Node Flooding Summary
  *********************
  
  Flooding refers to all water that overflows a node, whether it ponds or not.
  --------------------------------------------------------------------------
                                                             Total   Maximum
                                 Maximum   Time of Max       Flood    Ponded
                        Hours       Rate    Occurrence      Volume     Depth
  Node                 Flooded       LPS   days hr:min    10^6 ltr    Meters
  --------------------------------------------------------------------------
  WS02006248              0.01      0.37      0  02:03       0.000     0.000
  WS02006249              1.49     96.58      0  01:45       0.378     0.000
  WS02006252              0.01    245.63      0  00:00       0.000     0.000
  WS02006256              1.82    293.19      0  00:00       0.616     0.000
  YS02001580              0.01    172.30      0  01:35       0.001     0.000
  YS02001583              0.01    224.12      0  01:35       0.001     0.000
  YS02001586              0.53    388.26      0  01:42       0.395     0.000
  YS02001590              0.01     12.18      0  01:34       0.000     0.000
  YS02001596              0.01      0.09      0  02:03       0.000     0.000
  YS02001600              0.01      4.52      0  01:35       0.000     0.000
  YS02001601              0.74   1249.64      0  01:40       1.506     0.000
  YS02001602              0.63     62.07      0  02:08       0.129     0.000
  YS02001605              0.01     15.43      0  01:35       0.000     0.000
  YS02001607              0.01    168.56      0  01:35       0.001     0.000
  YS02001610              0.56    680.95      0  01:42       0.754     0.000
  YS02001613              0.01     19.18      0  01:35       0.000     0.000
  YS02001616              0.01    203.92      0  01:35       0.001     0.000
  YS02001619              0.01     67.15      0  01:35       0.000     0.000
  YS02001622              0.01      1.51      0  02:10       0.000     0.000
  YS02001625              0.54   1301.55      0  01:43       1.241     0.000
  YS02001629              0.12    315.72      0  01:38       0.069     0.000
  YS02001633              0.01      2.20      0  02:10       0.000     0.000
  YS02001644              0.20    998.11      0  01:38       0.373     0.000
  YS02001649              0.01    187.73      0  01:37       0.001     0.000
  YS02001652              0.01     15.38      0  01:37       0.000     0.000
  YS02001745              0.01     81.93      0  01:37       0.000     0.000
  YS02001748              0.01    165.88      0  01:37       0.000     0.000
  YS02001751              0.01    132.58      0  01:37       0.001     0.000
  YS02001754              0.01     67.89      0  01:37       0.000     0.000
  YS02001757              0.01     33.20      0  01:37       0.000     0.000
  YS02001759              0.01      5.15      0  01:37       0.000     0.000
  YS02001762              0.01     16.86      0  01:37       0.000     0.000
  YS02001765              0.01      7.75      0  01:37       0.000     0.000
  YS02001767              0.01      3.76      0  01:37       0.000     0.000
  YS02001770              0.01     48.49      0  01:36       0.001     0.000
  YS02001779              0.17    678.60      0  01:36       0.207     0.000
  YS02001882              0.01      0.06      0  02:03       0.000     0.000
  YS02001884              0.01      0.60      0  02:03       0.000     0.000
  YS02001890              0.17    363.98      0  01:38       0.128     0.000
  YS02001898              0.01    108.15      0  01:35       0.000     0.000
  YS02001907              0.38   1945.80      0  01:40       1.377     0.000
  YS02001918              0.01    313.09      0  01:36       0.004     0.000
  YS02001923              0.01     43.18      0  01:36       0.000     0.000
  YS02001926              0.01     63.69      0  01:37       0.000     0.000
  YS02001929              0.01   1014.12      0  01:36       0.009     0.000
  YS02163301              0.01      2.42      0  02:10       0.000     0.000
  YS02163601              0.01     11.91      0  02:03       0.000     0.000
  YS02164001              0.01      4.36      0  02:10       0.000     0.000
  
  
  **********************
  Storage Volume Summary
  **********************
  
  ------------------------------------------------------------------------------------------------
                         Average    Avg   Evap  Exfil     Maximum    Max    Time of Max    Maximum
                          Volume   Pcnt   Pcnt   Pcnt      Volume   Pcnt     Occurrence    Outflow
  Storage Unit           1000 m³   Full   Loss   Loss     1000 m³   Full    days hr:min        LPS
  ------------------------------------------------------------------------------------------------
  CC-storage               2.543   39.7    0.0    0.0       4.664   72.8       0  02:13    1783.53
  JK-storage               0.114   39.0    0.0    0.0       0.213   73.0       0  01:36    2300.00
  
  
  ***********************
  Outfall Loading Summary
  ***********************
  
  -----------------------------------------------------------
                         Flow       Avg       Max       Total
                         Freq      Flow      Flow      Volume
  Outfall Node           Pcnt       LPS       LPS    10^6 ltr
  -----------------------------------------------------------
  CC-1                  40.26    683.00    683.00       4.371
  CC-2                  38.32    683.00    683.00       4.179
  JK-1                  16.88   1000.00   1000.00       2.157
  JK-2                   0.25   1000.00   1000.00       0.048
  WSC                   99.93    231.42    559.00       4.327
  -----------------------------------------------------------
  System                39.13   3597.42   3366.23      15.082
  
  
  ********************
  Link Flow Summary
  ********************
  
  -----------------------------------------------------------------------------
                                 Maximum  Time of Max   Maximum    Max/    Max/
                                  |Flow|   Occurrence   |Veloc|    Full    Full
  Link                 Type          LPS  days hr:min     m/sec    Flow   Depth
  -----------------------------------------------------------------------------
  1                    CONDUIT    559.00     0  02:16      2.83    0.19    0.30
  WS02003060WS02003069 CONDUIT    557.33     0  02:14      1.64    0.22    0.34
  WS02003066WSF200     CONDUIT    540.84     0  02:13      2.86    0.09    0.22
  WS02003067WS02003066 CONDUIT    540.75     0  02:13      1.21    0.17    0.42
  WS02003069WS02003072 CONDUIT    557.42     0  02:15      1.37    0.27    0.39
  WS02003072WS02003073 CONDUIT    557.34     0  02:15      1.44    1.20    0.37
  WS02004401WS02004402 CONDUIT    550.60     0  02:09      1.23    0.66    0.89
  WS02004402WS02004403 CONDUIT    550.68     0  02:09      1.24    0.79    0.92
  WS02004403WS02004404 CONDUIT    568.62     0  02:11      1.17    0.41    0.96
  WS02004404WS02004405 CONDUIT    613.25     0  02:11      1.43    6.01    0.98
  WS02004405WS02004406 CONDUIT    548.75     0  02:11      1.39    1.08    0.96
  WS02004406WS02004407 CONDUIT    542.89     0  02:35      1.05    0.24    0.63
  WS02004407WS02004409 CONDUIT    542.28     0  02:11      1.60    0.19    0.48
  WS02004409WS02004410 CONDUIT    541.72     0  02:12      1.06    0.70    0.68
  WS02004410WS02004411 CONDUIT    541.60     0  02:12      1.01    0.74    0.69
  WS02004411WS02004412 CONDUIT    540.87     0  02:12      0.97    0.77    0.70
  WS02004412WS02004413 CONDUIT    541.20     0  02:12      0.87    0.36    0.78
  WS02004413WS02003067 CONDUIT    540.68     0  02:13      1.11    0.23    0.59
  WS02006109WS02006110 CONDUIT    552.38     0  01:46      1.10    1.06    1.00
  WS02006110WS02006113 CONDUIT    567.69     0  01:46      1.37    0.52    0.78
  WS02006111WS02006112 CONDUIT    542.03     0  02:15      1.96    0.26    0.67
  WS02006112WS02006115 CONDUIT    550.29     0  01:51      0.87    0.32    0.88
  WS02006113WS02006111 CONDUIT    560.10     0  02:20      2.46    0.67    0.46
  WS02006115WS02006116 CONDUIT    544.37     0  02:28      1.19    0.70    0.79
  WS02006116WS02004401 CONDUIT    543.20     0  02:36      1.22    0.75    0.87
  WS02006228WS02006109 CONDUIT    551.01     0  01:46      1.10    2.41    1.00
  WS02006229WS02006228 CONDUIT    551.46     0  01:46      1.14    1.83    1.00
  WS02006230WS02006229 CONDUIT    551.30     0  01:46      1.43   12.27    1.00
  WS02006231WS02006230 CONDUIT    553.42     0  01:45      1.54    8.39    1.00
  WS02006232WS02006231 CONDUIT    555.04     0  01:45      1.44    1.16    1.00
  WS02006234WS02006232 CONDUIT    555.13     0  01:45      1.44    1.12    1.00
  WS02006235WS02006234 CONDUIT    555.71     0  01:45      1.44    5.86    1.00
  WS02006238WS02006235 CONDUIT    420.45     0  03:14      1.54    0.94    1.00
  WS02006239WS02006238 CONDUIT    421.70     0  03:14      1.10    1.35    1.00
  WS02006240WS02006239 CONDUIT    421.19     0  03:14      1.24    1.33    1.00
  WS02006242WS02006240 CONDUIT    419.26     0  03:14      1.13    1.67    1.00
  WS02006243WS02006242 CONDUIT    418.98     0  03:14      1.40    0.90    1.00
  WS02006245WS02006243 CONDUIT    418.45     0  03:14      1.45    1.24    1.00
  WS02006247WS02006245 CONDUIT    418.48     0  03:14      1.43    3.32    1.00
  WS02006248WS02006247 CONDUIT    418.21     0  03:14      1.44    0.91    1.00
  WS02006249WS02006248 CONDUIT    417.86     0  03:14      1.36    2.29    1.00
  WS02006251WS02006249 CONDUIT    459.02     0  00:00      1.99    1.32    1.00
  WS02006252WS02006251 CONDUIT    405.50     0  01:45     25.30    1.49    1.00
  WS02006256WS02006235 CONDUIT    288.91     0  00:00      4.23    3.06    1.00
  WSF200WS02003060     CONDUIT    541.33     0  02:13      2.07    0.12    0.28
  YS02001580YS02001583 CONDUIT    234.99     0  01:35      1.03    0.91    1.00
  YS02001583YS02001586 CONDUIT    236.51     0  01:34      1.08    0.36    1.00
  YS02001586YS02001590 CONDUIT    318.32     0  02:03      1.30    0.56    1.00
  YS02001590YS02001593 CONDUIT    318.50     0  02:03      1.13    2.00    1.00
  YS02001593YS02001596 CONDUIT    318.38     0  02:03      1.74    0.50    1.00
  YS02001596YS02001600 CONDUIT    319.16     0  02:03      1.21    0.62    1.00
  YS02001600YS02001601 CONDUIT    318.31     0  02:03      1.13    0.55    1.00
  YS02001601YS02001602 CONDUIT    587.74     0  01:35      2.08    2.12    1.00
  YS02001602YS02001605 CONDUIT    587.86     0  01:34      2.08   12.44    1.00
  YS02001605YS02001607 CONDUIT    587.58     0  01:35      2.08    3.22    1.00
  YS02001607YS02001610 CONDUIT    558.21     0  01:34      0.75    0.53    1.00
  YS02001610YS02001613 CONDUIT    523.70     0  01:35      0.71    0.60    1.00
  YS02001613YS02001616 CONDUIT    459.26     0  01:34      0.69    0.39    1.00
  YS02001616YS02001619 CONDUIT    458.97     0  02:19      0.67    0.80    1.00
  YS02001619YS02001622 CONDUIT    932.82     0  01:38      1.35    1.37    1.00
  YS02001622YS02001625 CONDUIT    932.68     0  01:38      1.19    0.50    1.00
  YS02001625YS02001629 CONDUIT    817.32     0  02:09      1.04    0.39    1.00
  YS02001629YS02163301 CONDUIT    818.06     0  02:09      1.04    1.01    1.00
  YS02001633YS02163601 CONDUIT   1362.41     0  01:36      1.73    1.43    1.00
  YS02001641YS02001644 CONDUIT   1354.35     0  01:36      1.72    4.38    1.00
  YS02001644YS02001647 CONDUIT   1947.46     0  01:36      2.48    1.14    1.00
  YS02001647YS02001649 CONDUIT   1953.35     0  01:36      2.49    1.03    1.00
  YS02001649YS02001757 CONDUIT   2244.17     0  01:36      2.86    1.36    1.00
  YS02001652YS02001649 CONDUIT   1057.17     0  01:38      1.35    0.52    1.00
  YS02001655YS02001652 CONDUIT   1056.82     0  01:38      1.63    0.51    1.00
  YS02001658YS02001655 CONDUIT   1055.94     0  01:38      2.11    0.45    1.00
  YS02001661YS02001658 CONDUIT   1055.21     0  01:38      2.56    0.41    1.00
  YS02001664YS02001661 CONDUIT   1053.74     0  01:38      2.61    0.33    1.00
  YS02001745YS02001748 CONDUIT    672.62     0  01:38      2.53    0.26    1.00
  YS02001748YS02001751 CONDUIT    672.81     0  01:38      1.97    0.34    1.00
  YS02001751YS02001754 CONDUIT    672.73     0  01:38      1.66    0.32    1.00
  YS02001754YS02001757 CONDUIT    673.49     0  01:38      0.86    0.27    1.00
  YS02001757CaochengTiaoxuchi CONDUIT   3590.82     0  01:38      4.75    1.55    1.00
  YS02001759YS02001757 CONDUIT   1477.60     0  01:37      1.88    1.05    1.00
  YS02001762YS02001759 CONDUIT    735.99     0  01:47      0.94    0.85    1.00
  YS02001765YS02001762 CONDUIT    735.75     0  01:47      0.94    0.69    1.00
  YS02001767YS02001765 CONDUIT    735.27     0  01:47      0.94    0.92    1.00
  YS02001770YS02001767 CONDUIT    734.09     0  01:47      0.94    2.91    1.00
  YS02001774YS02001770 CONDUIT    712.45     0  01:36      0.91    0.46    1.00
  YS02001779YS02001774 CONDUIT    705.55     0  01:36      0.93    0.36    1.00
  YS02001783YS02001784 CONDUIT   1170.68     0  01:37      2.33    1.61    1.00
  YS02001784YS02001785 CONDUIT   1172.01     0  01:37      2.33    2.73    1.00
  YS02001786YS02001788 CONDUIT   1171.26     0  01:37      2.51    2.26    0.90
  YS02001788YS02001790 CONDUIT   1209.76     0  01:36      2.80    0.89    0.84
  YS02001790YS02001791 CONDUIT   1300.26     0  01:37      3.44    1.41    0.71
  YS02001791YS02001793 CONDUIT   1251.77     0  01:43      6.75    0.54    0.45
  YS02001793JiankangQianchi CONDUIT   1281.01     0  01:43      2.56    0.10    0.65
  YS02001882YS02001884 CONDUIT    125.93     0  01:35      0.16    0.14    1.00
  YS02001884YS02001887 CONDUIT    178.14     0  01:35      0.23    0.24    1.00
  YS02001887YS02001890 CONDUIT    893.20     0  01:38      1.14    1.53    1.00
  YS02001890YS02001895 CONDUIT    577.78     0  01:36      0.74    0.27    1.00
  YS02001895YS02001898 CONDUIT    577.65     0  01:36      0.74    1.00    1.00
  YS02001898YS02001901 CONDUIT    575.73     0  01:36      0.73    0.37    1.00
  YS02001901YS02001904 CONDUIT    576.63     0  01:36      0.73    0.89    1.00
  YS02001904YS02001907 CONDUIT    578.58     0  01:36      0.74    0.20    1.00
  YS02001907YS02006553 CONDUIT    813.25     0  02:03      0.90    0.96    1.00
  YS02001910YS02001907 CONDUIT   1448.86     0  01:40      1.84    0.82    1.00
  YS02001915YS02001910 CONDUIT   1448.65     0  01:40      1.84    0.72    1.00
  YS02001918YS02001915 CONDUIT    917.89     0  01:36      1.17    0.51    1.00
  YS02001920YS02001918 CONDUIT    837.47     0  01:36      1.07    0.81    1.00
  YS02001923YS02001920 CONDUIT    860.88     0  01:36      1.14    0.39    1.00
  YS02001926YS02001923 CONDUIT   1177.75     0  01:36      1.64    1.68    1.00
  YS02001929YS02001926 CONDUIT    821.71     0  01:36      1.29    0.39    1.00
  YS02006553YS02006556 CONDUIT    811.12     0  02:03      1.03    0.69    1.00
  YS02006556YS02006558 CONDUIT    812.89     0  02:03      1.03    0.64    1.00
  YS02006558YS02006561 CONDUIT   1211.79     0  01:35      4.29    2.68    1.00
  YS02006561YS02001783 CONDUIT   1171.12     0  01:37      2.33    0.61    1.00
  YS02163301YS02001633 CONDUIT    818.51     0  02:09      1.04    0.77    1.00
  YS02163601YS02164001 CONDUIT   1359.61     0  01:36      1.73    1.20    1.00
  YS02164001YS02001641 CONDUIT   1354.07     0  01:36      1.72    1.85    1.00
  CC-R1                PUMP       683.00     0  00:00              1.00
  CC-R2                PUMP       683.00     0  00:00              1.00
  CC-S1                PUMP       200.00     0  00:00              1.00
  CC-S2                PUMP       200.00     0  00:00              1.00
  JK-R1                PUMP      1000.00     0  00:00              1.00
  JK-R2                PUMP      1000.00     0  00:00              1.00
  JK-S                 PUMP       300.00     0  00:00              1.00
  
  
  ***************************
  Flow Classification Summary
  ***************************
  
  -------------------------------------------------------------------------------------
                      Adjusted    ---------- Fraction of Time in Flow Class ---------- 
                       /Actual         Up    Down  Sub   Sup   Up    Down  Norm  Inlet 
  Conduit               Length    Dry  Dry   Dry   Crit  Crit  Crit  Crit  Ltd   Ctrl  
  -------------------------------------------------------------------------------------
  1                       1.00   0.00  0.00  0.00  0.00  1.00  0.00  0.00  0.63  0.00
  WS02003060WS02003069    1.00   0.00  0.00  0.00  0.97  0.03  0.00  0.00  0.76  0.00
  WS02003066WSF200        1.00   0.06  0.00  0.00  0.00  0.94  0.00  0.00  0.74  0.00
  WS02003067WS02003066    1.00   0.05  0.01  0.00  0.94  0.00  0.00  0.00  0.00  0.00
  WS02003069WS02003072    1.00   0.00  0.00  0.00  0.99  0.01  0.00  0.00  0.78  0.00
  WS02003072WS02003073    1.00   0.00  0.00  0.00  0.00  0.00  0.00  1.00  0.00  0.00
  WS02004401WS02004402    1.00   0.02  0.00  0.00  0.98  0.00  0.00  0.00  0.00  0.00
  WS02004402WS02004403    1.00   0.02  0.00  0.00  0.98  0.00  0.00  0.00  0.00  0.00
  WS02004403WS02004404    1.00   0.00  0.03  0.00  0.97  0.00  0.00  0.00  0.00  0.00
  WS02004404WS02004405    1.00   0.00  0.00  0.00  1.00  0.00  0.00  0.00  0.01  0.00
  WS02004405WS02004406    1.00   0.00  0.00  0.00  1.00  0.00  0.00  0.00  0.00  0.00
  WS02004406WS02004407    1.00   0.00  0.03  0.00  0.96  0.00  0.00  0.00  0.00  0.00
  WS02004407WS02004409    1.00   0.04  0.00  0.00  0.95  0.01  0.00  0.00  0.95  0.00
  WS02004409WS02004410    1.00   0.04  0.00  0.00  0.96  0.00  0.00  0.00  0.00  0.00
  WS02004410WS02004411    1.00   0.04  0.00  0.00  0.96  0.00  0.00  0.00  0.00  0.00
  WS02004411WS02004412    1.00   0.04  0.00  0.00  0.96  0.00  0.00  0.00  0.00  0.00
  WS02004412WS02004413    1.00   0.04  0.00  0.00  0.96  0.00  0.00  0.00  0.00  0.00
  WS02004413WS02003067    1.00   0.04  0.01  0.00  0.00  0.00  0.95  0.00  0.00  0.00
  WS02006109WS02006110    1.00   0.00  0.01  0.00  0.98  0.00  0.01  0.00  0.00  0.00
  WS02006110WS02006113    1.00   0.01  0.01  0.00  0.98  0.00  0.00  0.00  0.00  0.00
  WS02006111WS02006112    1.00   0.02  0.00  0.00  0.98  0.00  0.00  0.00  0.98  0.00
  WS02006112WS02006115    1.00   0.02  0.00  0.00  0.97  0.00  0.00  0.00  0.00  0.00
  WS02006113WS02006111    1.00   0.02  0.00  0.00  0.00  0.98  0.00  0.00  0.10  0.00
  WS02006115WS02006116    1.00   0.02  0.00  0.00  0.97  0.00  0.00  0.01  0.00  0.00
  WS02006116WS02004401    1.00   0.02  0.00  0.00  0.98  0.00  0.00  0.00  0.00  0.00
  WS02006228WS02006109    1.00   0.00  0.00  0.00  1.00  0.00  0.00  0.00  0.00  0.00
  WS02006229WS02006228    1.00   0.00  0.00  0.00  0.99  0.00  0.00  0.01  0.00  0.00
  WS02006230WS02006229    1.00   0.00  0.00  0.00  0.99  0.00  0.00  0.01  0.00  0.00
  WS02006231WS02006230    1.00   0.00  0.00  0.00  0.21  0.00  0.78  0.00  0.00  0.00
  WS02006232WS02006231    1.00   0.00  0.00  0.00  0.99  0.00  0.01  0.00  0.00  0.00
  WS02006234WS02006232    1.00   0.00  0.00  0.00  1.00  0.00  0.00  0.00  0.42  0.00
  WS02006235WS02006234    1.00   0.00  0.00  0.00  0.53  0.00  0.47  0.00  0.00  0.00
  WS02006238WS02006235    1.00   0.00  0.00  0.00  1.00  0.00  0.00  0.00  0.00  0.00
  WS02006239WS02006238    1.00   0.00  0.00  0.00  1.00  0.00  0.00  0.00  0.56  0.00
  WS02006240WS02006239    1.00   0.00  0.00  0.00  0.39  0.00  0.00  0.61  0.02  0.00
  WS02006242WS02006240    1.00   0.00  0.00  0.00  1.00  0.00  0.00  0.00  0.00  0.00
  WS02006243WS02006242    1.00   0.00  0.00  0.00  0.99  0.00  0.00  0.00  0.71  0.00
  WS02006245WS02006243    1.00   0.00  0.00  0.00  0.45  0.00  0.00  0.55  0.00  0.00
  WS02006247WS02006245    1.00   0.00  0.00  0.00  0.99  0.00  0.00  0.01  0.00  0.00
  WS02006248WS02006247    1.00   0.00  0.00  0.00  0.99  0.00  0.00  0.01  0.18  0.00
  WS02006249WS02006248    1.00   0.00  0.00  0.00  0.28  0.00  0.72  0.00  0.00  0.00
  WS02006251WS02006249    1.00   0.00  0.00  0.00  1.00  0.00  0.00  0.00  0.74  0.00
  WS02006252WS02006251    1.00   0.00  0.76  0.00  0.19  0.00  0.05  0.00  0.00  0.00
  WS02006256WS02006235    1.00   0.00  0.00  0.00  1.00  0.00  0.00  0.00  0.00  0.00
  WSF200WS02003060        1.00   0.00  0.06  0.00  0.54  0.40  0.00  0.00  0.70  0.00
  YS02001580YS02001583    1.00   0.20  0.60  0.00  0.20  0.00  0.00  0.00  0.69  0.00
  YS02001583YS02001586    1.00   0.42  0.32  0.00  0.26  0.00  0.00  0.00  0.69  0.00
  YS02001586YS02001590    1.00   0.13  0.00  0.00  0.42  0.04  0.00  0.41  0.34  0.00
  YS02001590YS02001593    1.00   0.13  0.01  0.00  0.13  0.00  0.74  0.00  0.00  0.00
  YS02001593YS02001596    1.00   0.14  0.00  0.00  0.14  0.01  0.00  0.71  0.02  0.00
  YS02001596YS02001600    1.00   0.14  0.00  0.00  0.21  0.01  0.00  0.64  0.05  0.00
  YS02001600YS02001601    1.00   0.13  0.01  0.00  0.86  0.00  0.00  0.00  0.60  0.00
  YS02001601YS02001602    1.00   0.13  0.01  0.00  0.86  0.00  0.00  0.00  0.00  0.00
  YS02001602YS02001605    1.00   0.14  0.00  0.00  0.86  0.00  0.00  0.00  0.00  0.00
  YS02001605YS02001607    1.00   0.14  0.00  0.00  0.86  0.00  0.00  0.00  0.00  0.00
  YS02001607YS02001610    1.00   0.13  0.01  0.00  0.86  0.00  0.00  0.00  0.01  0.00
  YS02001610YS02001613    1.00   0.13  0.00  0.00  0.87  0.00  0.00  0.00  0.00  0.00
  YS02001613YS02001616    1.00   0.13  0.00  0.00  0.87  0.00  0.00  0.00  0.00  0.00
  YS02001616YS02001619    1.00   0.13  0.00  0.00  0.87  0.00  0.00  0.00  0.00  0.00
  YS02001619YS02001622    1.00   0.13  0.00  0.00  0.87  0.00  0.00  0.00  0.29  0.00
  YS02001622YS02001625    1.00   0.13  0.00  0.00  0.87  0.00  0.00  0.00  0.04  0.00
  YS02001625YS02001629    1.00   0.13  0.04  0.00  0.17  0.00  0.66  0.00  0.00  0.00
  YS02001629YS02163301    1.00   0.15  0.01  0.00  0.84  0.00  0.00  0.00  0.00  0.00
  YS02001633YS02163601    1.00   0.00  0.01  0.00  0.99  0.00  0.00  0.00  0.15  0.00
  YS02001641YS02001644    1.00   0.00  0.01  0.00  0.99  0.00  0.00  0.00  0.00  0.00
  YS02001644YS02001647    1.00   0.00  0.17  0.00  0.83  0.00  0.00  0.00  0.00  0.00
  YS02001647YS02001649    1.00   0.00  0.17  0.00  0.54  0.29  0.00  0.00  0.57  0.00
  YS02001649YS02001757    1.00   0.00  0.00  0.00  0.69  0.31  0.00  0.00  0.49  0.00
  YS02001652YS02001649    1.00   0.00  0.00  0.00  0.97  0.03  0.00  0.00  0.73  0.00
  YS02001655YS02001652    1.00   0.00  0.00  0.00  0.19  0.01  0.00  0.79  0.05  0.00
  YS02001658YS02001655    1.00   0.00  0.14  0.00  0.67  0.18  0.00  0.00  0.68  0.00
  YS02001661YS02001658    1.00   0.14  0.00  0.00  0.51  0.34  0.00  0.00  0.72  0.00
  YS02001664YS02001661    1.00   0.13  0.00  0.00  0.78  0.09  0.00  0.00  0.85  0.00
  YS02001745YS02001748    1.00   0.00  0.00  0.00  0.12  0.01  0.00  0.88  0.05  0.00
  YS02001748YS02001751    1.00   0.00  0.00  0.00  0.84  0.16  0.00  0.00  0.77  0.00
  YS02001751YS02001754    1.00   0.00  0.00  0.00  0.17  0.00  0.00  0.83  0.02  0.00
  YS02001754YS02001757    1.00   0.00  0.00  0.00  1.00  0.00  0.00  0.00  0.82  0.00
  YS02001757CaochengTiaoxuchi    1.00   0.00  0.00  0.00  0.98  0.02  0.00  0.00  0.81  0.00
  YS02001759YS02001757    1.00   0.00  0.00  0.00  1.00  0.00  0.00  0.00  0.61  0.00
  YS02001762YS02001759    1.00   0.00  0.00  0.00  1.00  0.00  0.00  0.00  0.03  0.00
  YS02001765YS02001762    1.00   0.00  0.00  0.00  1.00  0.00  0.00  0.00  0.73  0.00
  YS02001767YS02001765    1.00   0.00  0.00  0.00  1.00  0.00  0.00  0.00  0.00  0.00
  YS02001770YS02001767    1.00   0.00  0.00  0.00  1.00  0.00  0.00  0.00  0.00  0.00
  YS02001774YS02001770    1.00   0.00  0.13  0.00  0.70  0.00  0.16  0.00  0.03  0.00
  YS02001779YS02001774    1.00   0.00  0.00  0.00  1.00  0.00  0.00  0.00  0.78  0.00
  YS02001783YS02001784    1.00   0.00  0.17  0.00  0.83  0.00  0.00  0.00  0.55  0.00
  YS02001784YS02001785    1.00   0.00  0.00  0.00  1.00  0.00  0.00  0.00  0.16  0.00
  YS02001786YS02001788    1.00   0.00  0.00  0.00  0.79  0.21  0.00  0.00  0.00  0.00
  YS02001788YS02001790    1.00   0.00  0.00  0.00  0.21  0.79  0.00  0.00  0.80  0.00
  YS02001790YS02001791    1.00   0.00  0.00  0.00  0.01  0.99  0.00  0.00  0.17  0.00
  YS02001791YS02001793    1.00   0.00  0.00  0.00  0.00  1.00  0.00  0.00  0.01  0.00
  YS02001793JiankangQianchi    1.00   0.00  0.00  0.00  0.96  0.04  0.00  0.00  0.97  0.00
  YS02001882YS02001884    1.00   0.15  0.01  0.00  0.84  0.00  0.00  0.00  0.00  0.00
  YS02001884YS02001887    1.00   0.06  0.05  0.00  0.89  0.00  0.00  0.00  0.00  0.00
  YS02001887YS02001890    1.00   0.00  0.00  0.00  0.97  0.00  0.03  0.00  0.00  0.00
  YS02001890YS02001895    1.00   0.00  0.16  0.00  0.84  0.00  0.00  0.00  0.00  0.00
  YS02001895YS02001898    1.00   0.16  0.00  0.00  0.82  0.00  0.01  0.00  0.00  0.00
  YS02001898YS02001901    1.00   0.17  0.00  0.00  0.83  0.00  0.00  0.00  0.01  0.00
  YS02001901YS02001904    1.00   0.16  0.00  0.00  0.84  0.00  0.00  0.00  0.00  0.00
  YS02001904YS02001907    1.00   0.00  0.16  0.00  0.84  0.00  0.00  0.00  0.00  0.00
  YS02001907YS02006553    1.00   0.00  0.02  0.00  0.98  0.00  0.00  0.00  0.00  0.00
  YS02001910YS02001907    1.00   0.00  0.00  0.00  0.97  0.00  0.00  0.03  0.12  0.00
  YS02001915YS02001910    1.00   0.00  0.00  0.00  0.97  0.03  0.00  0.00  0.15  0.00
  YS02001918YS02001915    1.00   0.00  0.01  0.00  0.98  0.02  0.00  0.00  0.75  0.00
  YS02001920YS02001918    1.00   0.00  0.01  0.00  0.99  0.00  0.00  0.00  0.00  0.00
  YS02001923YS02001920    1.00   0.00  0.00  0.00  1.00  0.00  0.00  0.00  0.92  0.00
  YS02001926YS02001923    1.00   0.00  0.07  0.00  0.07  0.00  0.86  0.00  0.00  0.00
  YS02001929YS02001926    1.00   0.00  0.13  0.00  0.87  0.00  0.00  0.00  0.81  0.00
  YS02006553YS02006556    1.00   0.01  0.00  0.00  0.99  0.00  0.00  0.00  0.03  0.00
  YS02006556YS02006558    1.00   0.00  0.00  0.00  1.00  0.00  0.00  0.00  0.00  0.00
  YS02006558YS02006561    1.00   0.17  0.00  0.00  0.06  0.76  0.00  0.00  0.19  0.00
  YS02006561YS02001783    1.00   0.17  0.00  0.00  0.09  0.73  0.00  0.00  0.69  0.00
  YS02163301YS02001633    1.00   0.00  0.15  0.00  0.85  0.00  0.00  0.00  0.00  0.00
  YS02163601YS02164001    1.00   0.00  0.08  0.00  0.92  0.00  0.00  0.00  0.00  0.00
  YS02164001YS02001641    1.00   0.01  0.07  0.00  0.92  0.00  0.00  0.00  0.06  0.00
  
  
  *************************
  Conduit Surcharge Summary
  *************************
  
  ----------------------------------------------------------------------------
                                                           Hours        Hours 
                         --------- Hours Full --------   Above Full   Capacity
  Conduit                Both Ends  Upstream  Dnstream   Normal Flow   Limited
  ----------------------------------------------------------------------------
  WS02003072WS02003073        0.01      0.01      0.01      1.44         0.01
  WS02004403WS02004404        0.01      0.01      0.10      0.01         0.01
  WS02004404WS02004405        0.01      0.10      0.01      2.15         0.01
  WS02004405WS02004406        0.01      0.01      0.01      1.36         0.01
  WS02006109WS02006110        1.46      1.46      1.67      1.47         0.01
  WS02006110WS02006113        0.01      0.01      1.66      0.01         0.01
  WS02006111WS02006112        0.01      0.01      1.73      0.01         0.01
  WS02006112WS02006115        0.01      0.01      1.41      0.01         0.01
  WS02006228WS02006109        1.64      1.67      1.64      1.84         1.64
  WS02006229WS02006228        1.64      1.65      1.64      1.75         1.64
  WS02006230WS02006229        1.68      1.70      1.68      2.63         1.68
  WS02006231WS02006230        1.46      1.46      1.48      2.40         0.01
  WS02006232WS02006231        1.48      1.48      1.67      1.50         0.01
  WS02006234WS02006232        1.64      1.64      1.67      1.49         1.49
  WS02006235WS02006234        1.53      1.53      1.65      2.27         0.01
  WS02006238WS02006235        1.66      1.66      1.67      0.01         0.01
  WS02006239WS02006238        1.66      1.66      1.66      1.72         1.53
  WS02006240WS02006239        1.64      1.65      1.65      1.72         1.44
  WS02006242WS02006240        1.65      1.65      1.68      1.79         0.01
  WS02006243WS02006242        1.64      1.64      1.66      0.01         0.01
  WS02006245WS02006243        1.64      1.64      1.64      0.29         0.34
  WS02006247WS02006245        1.64      1.64      1.64      1.86         1.64
  WS02006248WS02006247        1.63      1.63      1.64      0.01         0.01
  WS02006249WS02006248        1.63      1.63      1.63      1.85         0.01
  WS02006251WS02006249        1.63      1.63      1.63      1.81         1.62
  WS02006252WS02006251        1.83      1.83      1.83      1.83         0.01
  WS02006256WS02006235        2.34      2.35      3.47      1.82         0.01
  YS02001580YS02001583        0.66      0.66      0.72      0.01         0.01
  YS02001583YS02001586        0.66      0.66      0.82      0.01         0.01
  YS02001586YS02001590        0.82      0.82      0.89      0.01         0.01
  YS02001590YS02001593        0.89      0.89      0.90      0.95         0.01
  YS02001593YS02001596        0.90      0.90      0.99      0.01         0.01
  YS02001596YS02001600        1.03      1.03      1.13      0.01         0.01
  YS02001600YS02001601        1.19      1.19      1.54      0.01         0.01
  YS02001601YS02001602        1.39      1.39      1.58      1.14         0.01
  YS02001602YS02001605        1.33      1.33      1.39      2.22         0.01
  YS02001605YS02001607        1.28      1.33      1.28      1.49         1.28
  YS02001607YS02001610        0.87      0.87      0.90      0.01         0.01
  YS02001610YS02001613        0.87      0.87      0.90      0.01         0.01
  YS02001613YS02001616        0.83      0.83      0.87      0.01         0.01
  YS02001616YS02001619        0.81      0.81      0.83      0.01         0.01
  YS02001619YS02001622        0.81      0.81      0.81      0.90         0.78
  YS02001622YS02001625        0.81      0.81      0.99      0.01         0.01
  YS02001625YS02001629        0.76      0.76      0.99      0.01         0.01
  YS02001629YS02163301        0.99      0.99      1.00      0.02         0.13
  YS02001633YS02163601        1.01      1.01      1.04      0.35         0.33
  YS02001641YS02001644        0.95      0.98      0.95      1.60         0.93
  YS02001644YS02001647        0.76      0.76      0.95      0.03         0.01
  YS02001647YS02001649        0.76      0.76      0.90      0.01         0.01
  YS02001649YS02001757        0.89      0.90      0.97      0.04         0.04
  YS02001652YS02001649        0.71      0.71      0.90      0.01         0.01
  YS02001655YS02001652        0.48      0.48      0.67      0.01         0.01
  YS02001658YS02001655        0.23      0.23      0.48      0.01         0.01
  YS02001661YS02001658        0.02      0.02      0.23      0.01         0.01
  YS02001664YS02001661        0.01      0.01      0.06      0.01         0.01
  YS02001745YS02001748        0.01      0.01      0.16      0.01         0.01
  YS02001748YS02001751        0.21      0.21      0.33      0.01         0.01
  YS02001751YS02001754        0.33      0.33      0.57      0.01         0.01
  YS02001754YS02001757        0.61      0.61      0.97      0.01         0.01
  YS02001757CaochengTiaoxuchi        0.90      0.97      1.41      0.38         0.30
  YS02001759YS02001757        0.87      0.87      0.97      0.02         0.03
  YS02001762YS02001759        0.83      0.83      0.87      0.01         0.02
  YS02001765YS02001762        0.78      0.78      0.83      0.01         0.01
  YS02001767YS02001765        0.74      0.74      0.78      0.01         0.02
  YS02001770YS02001767        0.73      0.74      0.74      0.55         0.52
  YS02001774YS02001770        0.71      0.71      0.81      0.01         0.01
  YS02001779YS02001774        0.54      0.54      0.81      0.01         0.01
  YS02001783YS02001784        0.55      0.58      0.55      0.70         0.55
  YS02001784YS02001785        0.45      0.55      0.45      0.93         0.45
  YS02001786YS02001788        0.01      0.45      0.01      0.80         0.01
  YS02001790YS02001791        0.01      0.01      0.01      0.54         0.01
  YS02001793JiankangQianchi        0.01      0.01      7.60      0.01         0.01
  YS02001882YS02001884        0.52      0.52      0.53      0.01         0.01
  YS02001884YS02001887        0.55      0.55      0.57      0.01         0.01
  YS02001887YS02001890        0.58      0.58      0.59      0.14         0.01
  YS02001890YS02001895        0.51      0.51      0.60      0.01         0.01
  YS02001895YS02001898        0.51      0.51      0.51      0.01         0.01
  YS02001898YS02001901        0.51      0.51      0.55      0.01         0.01
  YS02001901YS02001904        0.54      0.54      0.55      0.01         0.01
  YS02001904YS02001907        0.54      0.54      0.77      0.01         0.01
  YS02001907YS02006553        0.94      0.94      1.01      0.01         0.01
  YS02001910YS02001907        0.60      0.60      0.75      0.01         0.01
  YS02001915YS02001910        0.52      0.52      0.60      0.01         0.01
  YS02001918YS02001915        0.44      0.44      0.52      0.01         0.01
  YS02001920YS02001918        0.44      0.44      0.45      0.01         0.01
  YS02001923YS02001920        0.40      0.40      0.45      0.01         0.01
  YS02001926YS02001923        0.12      0.12      0.15      0.01         0.01
  YS02001929YS02001926        0.01      0.01      0.15      0.01         0.01
  YS02006553YS02006556        0.68      0.68      0.77      0.01         0.01
  YS02006556YS02006558        0.73      0.73      0.79      0.01         0.01
  YS02006558YS02006561        0.47      0.67      0.47      0.88         0.47
  YS02006561YS02001783        0.41      0.41      0.58      0.01         0.01
  YS02163301YS02001633        1.00      1.00      1.03      0.01         0.01
  YS02163601YS02164001        0.98      0.98      1.04      0.02         0.01
  YS02164001YS02001641        0.98      0.98      0.98      0.74         0.71
  
  
  ***************
  Pumping Summary
  ***************
  
  ---------------------------------------------------------------------------------------------------------
                                                  Min       Avg       Max     Total     Power    % Time Off
                        Percent   Number of      Flow      Flow      Flow    Volume     Usage    Pump Curve
  Pump                 Utilized   Start-Ups       LPS       LPS       LPS  10^6 ltr     Kw-hr    Low   High
  ---------------------------------------------------------------------------------------------------------
  CC-R1                   22.45           2      0.00    683.00    683.00     4.370     80.93    0.0   23.5
  CC-R2                   21.47           2      0.00    683.00    683.00     4.179     77.38    0.0   24.6
  CC-S1                   23.72           2      0.00    200.00    200.00     1.352      7.73    0.0    0.0
  CC-S2                   23.12           2      0.00    200.00    200.00     1.318      7.53    0.0    0.0
  JK-R1                    7.57           4      0.00   1000.00   1000.00     2.157     21.17    0.0    0.0
  JK-R2                    0.17           1      0.00   1000.00   1000.00     0.047      0.36    0.0    0.0
  JK-S                    22.99           3      0.00    300.00    300.00     1.966     30.73    0.0    0.0
  

  Analysis begun on:  Thu Jan 16 14:24:19 2025
  Analysis ended on:  Thu Jan 16 14:24:20 2025
  Total elapsed time: 00:00:01