
  EPA STORM WATER MANAGEMENT MODEL - VERSION 5.2 (Build 5.2.4)
  PYSWMM TOOLKIT API - VERSION v1.0 (2023-11-27)
  ------------------------------------------------------------

  WARNING 04: minimum elevation drop used for Conduit WS02004404WS02004405
  WARNING 03: negative offset ignored for Link YS02001904YS02001907
  
  ****************
  Analysis Options
  ****************
  Flow Units ............... LPS
  Process Models:
    Rainfall/Runoff ........ YES
    RDII ................... NO
    Snowmelt ............... NO
    Groundwater ............ NO
    Flow Routing ........... YES
    Ponding Allowed ........ NO
    Water Quality .......... NO
  Infiltration Method ...... HORTON
  Flow Routing Method ...... DYNWAVE
  Surcharge Method ......... EXTRAN
  Starting Date ............ 08/28/2015 08:00:00
  Ending Date .............. 08/28/2015 16:00:00
  Antecedent Dry Days ...... 8.0
  Report Time Step ......... 00:01:00
  Wet Time Step ............ 00:01:00
  Dry Time Step ............ 00:01:00
  Routing Time Step ........ 30.00 sec
  Variable Time Step ....... YES
  Maximum Trials ........... 8
  Number of Threads ........ 4
  Head Tolerance ........... 0.001500 m
  
  
  **************************        Volume         Depth
  Runoff Quantity Continuity     hectare-m            mm
  **************************     ---------       -------
  Total Precipitation ......         2.631        79.310
  Evaporation Loss .........         0.000         0.000
  Infiltration Loss ........         0.103         3.101
  Surface Runoff ...........         2.495        75.229
  Final Storage ............         0.033         0.998
  Continuity Error (%) .....        -0.022
  
  
  **************************        Volume        Volume
  Flow Routing Continuity        hectare-m      10^6 ltr
  **************************     ---------     ---------
  Dry Weather Inflow .......         0.025         0.248
  Wet Weather Inflow .......         2.495        24.953
  Groundwater Inflow .......         0.000         0.000
  RDII Inflow ..............         0.000         0.000
  External Inflow ..........         0.083         0.825
  External Outflow .........         1.619        16.189
  Flooding Loss ............         1.013        10.131
  Evaporation Loss .........         0.000         0.000
  Exfiltration Loss ........         0.000         0.000
  Initial Stored Volume ....         0.243         2.431
  Final Stored Volume ......         0.218         2.181
  Continuity Error (%) .....        -0.157
  
  
  *************************
  Highest Continuity Errors
  *************************
  Node YS02001583 (-5.16%)
  Node YS02001884 (4.80%)
  
  
  ***************************
  Time-Step Critical Elements
  ***************************
  Link WS02004404WS02004405 (31.20%)
  Link YS02001791YS02001793 (16.66%)
  Link WS02006238WS02006235 (13.67%)
  Link WS02003066WSF200 (10.06%)
  Link WS02006252WS02006251 (7.54%)
  
  
  ********************************
  Highest Flow Instability Indexes
  ********************************
  Link WS02006113WS02006111 (32)
  Link WS02006238WS02006235 (30)
  Link WS02006111WS02006112 (24)
  Link WS02006235WS02006234 (22)
  Link WS02006239WS02006238 (21)
  
  
  *********************************
  Most Frequent Nonconverging Nodes
  *********************************
  Node CC-1 (8.47%)
  Node CC-2 (8.47%)
  Node JK-1 (8.47%)
  Node JK-2 (8.47%)
  Node WSC (8.47%)
  
  
  *************************
  Routing Time Step Summary
  *************************
  Minimum Time Step           :     0.01 sec
  Average Time Step           :     3.26 sec
  Maximum Time Step           :     6.43 sec
  % of Time in Steady State   :     0.00
  Average Iterations per Step :     3.13
  % of Steps Not Converging   :     8.47
  Time Step Frequencies       :
     30.000 - 13.228 sec      :     0.00 %
     13.228 -  5.833 sec      :    19.37 %
      5.833 -  2.572 sec      :    30.84 %
      2.572 -  1.134 sec      :    36.59 %
      1.134 -  0.500 sec      :    13.19 %
  
  
  ***************************
  Subcatchment Runoff Summary
  ***************************
  
  ------------------------------------------------------------------------------------------------------------------------------
                            Total      Total      Total      Total     Imperv       Perv      Total       Total     Peak  Runoff
                           Precip      Runon       Evap      Infil     Runoff     Runoff     Runoff      Runoff   Runoff   Coeff
  Subcatchment                 mm         mm         mm         mm         mm         mm         mm    10^6 ltr      LPS
  ------------------------------------------------------------------------------------------------------------------------------
  sub60                     79.31       0.00       0.00       1.85      68.59       7.67      76.27        1.00   707.10   0.962
  sub61                     79.31       0.00       0.00       2.68      64.70      10.81      75.51        1.39   983.98   0.952
  sub62                     79.31       0.00       0.00       1.23      71.68       5.12      76.80        2.10  1379.24   0.968
  sub63                     79.31       0.00       0.00       4.96      55.34      18.04      73.38        1.67  1121.13   0.925
  sub64                     79.31       0.00       0.00       2.51      66.21       9.39      75.60        1.82  1142.84   0.953
  sub65                     79.31       0.00       0.00       2.17      67.75       8.14      75.89        2.09  1281.63   0.957
  sub66                     79.31       0.00       0.00       6.19      55.23      16.81      72.04        3.36  1724.32   0.908
  sub67                     79.31       0.00       0.00       1.18      71.73       5.17      76.89        1.43  1056.64   0.970
  sub68                     79.31       0.00       0.00       2.22      67.02       8.89      75.91        2.09  1418.98   0.957
  sub69                     79.31       0.00       0.00       2.00      67.30       9.90      77.20        2.86  1703.59   0.973
  sub70                     79.31       0.00       0.00       6.73      52.18      20.23      72.41        2.09   970.72   0.913
  sub71                     79.31       0.00       0.00       1.26      71.64       5.08      76.72        2.01  1234.30   0.967
  sub72                     79.31       0.00       0.00       1.13      72.35       4.43      76.78        1.06   603.17   0.968
  
  
  ******************
  Node Depth Summary
  ******************
  
  ---------------------------------------------------------------------------------
                                 Average  Maximum  Maximum  Time of Max    Reported
                                   Depth    Depth      HGL   Occurrence   Max Depth
  Node                 Type       Meters   Meters   Meters  days hr:min      Meters
  ---------------------------------------------------------------------------------
  WS02003060           JUNCTION     0.21     0.38     5.32     0  03:14        0.38
  WS02003066           JUNCTION     0.17     0.30     5.85     0  03:14        0.30
  WS02003067           JUNCTION     0.46     0.70     6.02     0  03:14        0.70
  WS02003069           JUNCTION     0.23     0.43     5.01     0  03:15        0.43
  WS02003072           JUNCTION     0.29     0.50     4.87     0  03:15        0.50
  WS02003073           JUNCTION     0.16     0.30     4.36     0  03:16        0.30
  WS02004401           JUNCTION     0.55     0.85     6.85     0  03:11        0.85
  WS02004402           JUNCTION     0.58     0.88     6.84     0  03:11        0.88
  WS02004403           JUNCTION     0.61     0.89     6.82     0  03:11        0.89
  WS02004404           JUNCTION     0.68     0.96     6.81     0  03:11        0.96
  WS02004405           JUNCTION     0.68     0.96     6.81     0  03:12        0.96
  WS02004406           JUNCTION     0.69     0.96     6.79     0  03:12        0.96
  WS02004407           JUNCTION     0.15     0.30     6.61     0  03:12        0.30
  WS02004409           JUNCTION     0.35     0.67     6.44     0  03:12        0.67
  WS02004410           JUNCTION     0.37     0.68     6.40     0  03:12        0.68
  WS02004411           JUNCTION     0.39     0.69     6.37     0  03:13        0.69
  WS02004412           JUNCTION     0.42     0.70     6.34     0  03:13        0.70
  WS02004413           JUNCTION     0.57     0.86     6.33     0  03:13        0.86
  WS02006109           JUNCTION     0.63     1.02     7.64     0  02:00        0.97
  WS02006110           JUNCTION     0.63     0.98     7.57     0  02:00        0.92
  WS02006111           JUNCTION     0.16     0.29     6.99     0  02:50        0.29
  WS02006112           JUNCTION     0.71     1.06     6.95     0  02:26        1.06
  WS02006113           JUNCTION     0.25     0.46     7.35     0  02:56        0.46
  WS02006115           JUNCTION     0.44     0.75     6.89     0  03:11        0.75
  WS02006116           JUNCTION     0.52     0.83     6.87     0  03:11        0.83
  WS02006228           JUNCTION     0.63     1.05     7.70     0  02:00        1.02
  WS02006229           JUNCTION     0.60     1.06     7.75     0  02:00        1.03
  WS02006230           JUNCTION     0.61     1.17     7.92     0  02:00        1.10
  WS02006231           JUNCTION     0.42     0.92     8.04     0  02:00        0.85
  WS02006232           JUNCTION     0.55     1.12     8.16     0  02:00        1.06
  WS02006234           JUNCTION     0.49     1.14     8.30     0  02:00        1.09
  WS02006235           JUNCTION     0.54     1.22     8.39     0  02:00        1.16
  WS02006238           JUNCTION     0.56     1.26     8.40     0  02:00        1.19
  WS02006239           JUNCTION     0.53     1.24     8.45     0  02:00        1.18
  WS02006240           JUNCTION     0.50     1.20     8.49     0  02:00        1.15
  WS02006242           JUNCTION     0.55     1.27     8.54     0  02:00        1.24
  WS02006243           JUNCTION     0.47     1.16     8.58     0  02:00        1.16
  WS02006245           JUNCTION     0.46     1.14     8.63     0  03:03        1.14
  WS02006247           JUNCTION     0.47     1.15     8.65     0  03:03        1.15
  WS02006248           JUNCTION     0.44     1.09     8.68     0  02:00        1.09
  WS02006249           JUNCTION     0.46     1.09     8.69     0  01:59        1.09
  WS02006251           JUNCTION     0.46     1.74     9.41     0  01:59        1.12
  WS02006252           JUNCTION     0.30     1.50     9.74     0  00:00        1.50
  WS02006256           JUNCTION     1.29     2.35     9.28     0  00:00        2.35
  WSF200               JUNCTION     0.15     0.29     5.52     0  03:14        0.29
  YS02001580           JUNCTION     0.15     1.05     9.59     0  01:59        0.78
  YS02001583           JUNCTION     0.18     1.14     9.64     0  01:59        0.82
  YS02001586           JUNCTION     0.29     1.13     9.30     0  01:59        1.13
  YS02001590           JUNCTION     0.41     1.40     9.26     0  01:59        1.38
  YS02001593           JUNCTION     0.34     1.46     9.32     0  01:57        1.46
  YS02001596           JUNCTION     0.48     1.80     9.22     0  01:57        1.80
  YS02001600           JUNCTION     0.58     1.87     9.00     0  01:57        1.87
  YS02001601           JUNCTION     0.77     2.06     8.90     0  01:57        2.06
  YS02001602           JUNCTION     0.67     1.87     8.77     0  01:57        1.87
  YS02001605           JUNCTION     0.62     1.78     8.68     0  02:07        1.78
  YS02001607           JUNCTION     0.58     1.65     8.49     0  02:06        1.65
  YS02001610           JUNCTION     0.62     1.68     8.48     0  02:02        1.68
  YS02001613           JUNCTION     0.58     1.68     8.52     0  02:07        1.68
  YS02001616           JUNCTION     0.52     1.61     8.52     0  02:10        1.61
  YS02001619           JUNCTION     0.50     1.61     8.54     0  02:07        1.61
  YS02001622           JUNCTION     0.48     1.58     8.49     0  02:13        1.58
  YS02001625           JUNCTION     0.73     1.78     8.38     0  02:02        1.78
  YS02001629           JUNCTION     0.63     1.85     8.40     0  02:04        1.85
  YS02001633           JUNCTION     0.71     2.02     8.47     0  02:07        2.02
  YS02001641           JUNCTION     0.68     1.95     8.39     0  02:06        1.94
  YS02001644           JUNCTION     0.67     1.92     8.35     0  02:05        1.92
  YS02001647           JUNCTION     0.46     1.77     8.38     0  02:10        1.76
  YS02001649           JUNCTION     0.52     2.01     8.40     0  02:12        2.01
  YS02001652           JUNCTION     0.40     1.87     8.46     0  02:12        1.86
  YS02001655           JUNCTION     0.31     1.70     8.55     0  02:05        1.67
  YS02001658           JUNCTION     0.23     1.59     8.73     0  02:05        1.44
  YS02001661           JUNCTION     0.22     1.26     8.66     0  02:12        1.25
  YS02001664           JUNCTION     0.09     0.75     8.67     0  02:12        0.73
  YS02001745           JUNCTION     0.12     0.94     8.46     0  02:12        0.94
  YS02001748           JUNCTION     0.22     1.46     8.53     0  02:06        1.36
  YS02001751           JUNCTION     0.27     1.53     8.41     0  02:12        1.53
  YS02001754           JUNCTION     0.36     1.77     8.38     0  02:12        1.77
  YS02001757           JUNCTION     0.54     2.09     8.35     0  02:12        2.08
  YS02001759           JUNCTION     0.49     2.08     8.44     0  02:11        2.07
  YS02001762           JUNCTION     0.48     2.06     8.46     0  02:07        2.06
  YS02001765           JUNCTION     0.45     2.10     8.55     0  02:03        2.06
  YS02001767           JUNCTION     0.44     2.02     8.51     0  02:07        2.02
  YS02001770           JUNCTION     0.46     1.95     8.44     0  02:03        1.95
  YS02001774           JUNCTION     0.52     2.05     8.47     0  02:03        2.05
  YS02001779           JUNCTION     0.34     1.68     8.37     0  02:03        1.68
  YS02001783           JUNCTION     0.34     1.24     7.39     0  02:10        1.24
  YS02001784           JUNCTION     0.35     1.13     7.20     0  02:12        1.12
  YS02001786           JUNCTION     0.29     0.88     6.91     0  02:10        0.87
  YS02001788           JUNCTION     0.21     0.62     6.60     0  02:10        0.62
  YS02001790           JUNCTION     0.25     0.73     6.37     0  02:12        0.72
  YS02001791           JUNCTION     0.15     0.44     5.91     0  02:12        0.44
  YS02001793           JUNCTION     0.08     0.29     5.12     0  02:17        0.25
  YS02001882           JUNCTION     0.42     1.67     8.39     0  02:12        1.66
  YS02001884           JUNCTION     0.50     1.77     8.39     0  02:12        1.77
  YS02001887           JUNCTION     0.58     1.85     8.39     0  02:12        1.85
  YS02001890           JUNCTION     0.61     1.81     8.32     0  02:04        1.81
  YS02001895           JUNCTION     0.38     1.57     8.32     0  02:04        1.57
  YS02001898           JUNCTION     0.39     1.58     8.31     0  02:04        1.56
  YS02001901           JUNCTION     0.50     1.69     8.30     0  02:04        1.68
  YS02001904           JUNCTION     0.48     1.65     8.28     0  02:04        1.64
  YS02001907           JUNCTION     0.79     1.96     8.25     0  02:04        1.96
  YS02001910           JUNCTION     0.60     1.98     8.49     0  02:13        1.98
  YS02001915           JUNCTION     0.43     1.95     8.67     0  02:13        1.95
  YS02001918           JUNCTION     0.25     1.81     8.88     0  02:05        1.66
  YS02001920           JUNCTION     0.33     2.06     9.07     0  02:05        1.74
  YS02001923           JUNCTION     0.19     1.94     9.20     0  02:05        1.51
  YS02001926           JUNCTION     0.22     1.83     9.27     0  02:05        1.65
  YS02001929           JUNCTION     0.14     1.78     9.47     0  02:05        1.78
  YS02006553           JUNCTION     0.79     2.00     8.28     0  02:07        2.00
  YS02006556           JUNCTION     0.76     1.98     8.29     0  02:10        1.97
  YS02006558           JUNCTION     0.81     2.03     8.30     0  02:10        2.02
  YS02006561           JUNCTION     0.21     0.91     7.57     0  02:10        0.90
  YS02163301           JUNCTION     0.66     1.93     8.45     0  02:07        1.93
  YS02163601           JUNCTION     0.74     2.03     8.42     0  02:07        2.03
  YS02164001           JUNCTION     0.67     1.95     8.40     0  02:05        1.94
  CC-1                 OUTFALL      0.00     0.00     0.00     0  00:00        0.00
  CC-2                 OUTFALL      0.00     0.00     0.00     0  00:00        0.00
  JK-1                 OUTFALL      0.00     0.00     0.00     0  00:00        0.00
  JK-2                 OUTFALL      0.00     0.00     0.00     0  00:00        0.00
  WSC                  OUTFALL      0.16     0.30     0.97     0  03:17        0.30
  CC-storage           STORAGE      0.95     1.87     7.37     0  02:39        1.87
  JK-storage           STORAGE      2.27     4.21     5.01     0  02:16        4.14
  
  
  *******************
  Node Inflow Summary
  *******************
  
  -------------------------------------------------------------------------------------------------
                                  Maximum  Maximum                  Lateral       Total        Flow
                                  Lateral    Total  Time of Max      Inflow      Inflow     Balance
                                   Inflow   Inflow   Occurrence      Volume      Volume       Error
  Node                 Type           LPS      LPS  days hr:min    10^6 ltr    10^6 ltr     Percent
  -------------------------------------------------------------------------------------------------
  WS02003060           JUNCTION     16.53   554.16     0  03:14       0.471        4.61       0.042
  WS02003066           JUNCTION      0.00   537.41     0  03:14           0        4.14       0.030
  WS02003067           JUNCTION      0.00   537.35     0  03:13           0        4.15       0.096
  WS02003069           JUNCTION      0.32   554.29     0  03:15     0.00912        4.62       0.074
  WS02003072           JUNCTION      0.00   553.96     0  03:15           0        4.62       0.136
  WS02003073           JUNCTION      1.82   555.61     0  03:16      0.0519        4.66       0.105
  WS02004401           JUNCTION      0.00   541.20     0  03:11           0        4.25       0.234
  WS02004402           JUNCTION      0.00   540.44     0  03:11           0        4.24       0.238
  WS02004403           JUNCTION      0.00   539.88     0  03:11           0        4.23       0.233
  WS02004404           JUNCTION      0.16   539.62     0  03:11     0.00462        4.22       0.207
  WS02004405           JUNCTION      0.04   539.43     0  03:11     0.00109        4.21       0.276
  WS02004406           JUNCTION      0.00   539.57     0  03:12           0         4.2       0.490
  WS02004407           JUNCTION      0.00   538.91     0  03:12           0        4.18       0.021
  WS02004409           JUNCTION      0.00   538.53     0  03:12           0        4.18       0.051
  WS02004410           JUNCTION      0.00   538.16     0  03:12           0        4.18       0.094
  WS02004411           JUNCTION      0.00   537.88     0  03:13           0        4.17       0.122
  WS02004412           JUNCTION      0.00   537.70     0  03:13           0        4.17       0.166
  WS02004413           JUNCTION      0.00   537.65     0  03:13           0        4.16       0.307
  WS02006109           JUNCTION      1.23   541.92     0  02:00      0.0351        4.29       0.223
  WS02006110           JUNCTION      0.00   542.39     0  02:00           0        4.28       0.149
  WS02006111           JUNCTION      0.00   559.99     0  02:30           0        4.28       0.016
  WS02006112           JUNCTION      0.00   542.75     0  03:10           0        4.27       0.459
  WS02006113           JUNCTION      0.00   555.18     0  02:00           0        4.28       0.038
  WS02006115           JUNCTION      0.00   547.71     0  03:10           0        4.26       0.148
  WS02006116           JUNCTION      0.00   543.19     0  03:11           0        4.25       0.096
  WS02006228           JUNCTION      0.00   540.06     0  02:00           0        4.26       0.096
  WS02006229           JUNCTION      0.00   540.70     0  02:00           0        4.27       0.127
  WS02006230           JUNCTION     10.28   538.96     0  02:00       0.293        4.27       0.141
  WS02006231           JUNCTION      0.00   530.39     0  02:00           0        3.98      -0.092
  WS02006232           JUNCTION      0.00   530.98     0  02:00           0        3.99       0.239
  WS02006234           JUNCTION      0.00   532.05     0  02:00           0        3.98      -0.185
  WS02006235           JUNCTION      0.00   532.95     0  02:00           0        4.07       0.202
  WS02006238           JUNCTION      0.00   417.68     0  03:27           0        2.71      -0.123
  WS02006239           JUNCTION      0.00   417.33     0  03:27           0        2.68      -0.075
  WS02006240           JUNCTION      0.00   415.73     0  03:27           0        2.63      -0.062
  WS02006242           JUNCTION      0.00   415.86     0  03:27           0         2.6      -0.043
  WS02006243           JUNCTION      0.00   415.30     0  03:27           0        2.57      -0.035
  WS02006245           JUNCTION      0.00   414.46     0  03:27           0        2.56       0.248
  WS02006247           JUNCTION      0.00   414.00     0  03:27           0        2.56      -0.023
  WS02006248           JUNCTION      0.00   413.61     0  03:27           0        2.56       0.065
  WS02006249           JUNCTION      0.00   459.02     0  00:00           0        2.94       0.165
  WS02006251           JUNCTION      0.08   413.45     0  01:59     0.00219        2.94      -0.018
  WS02006252           JUNCTION      0.00   400.00     0  00:00           0        2.93      -0.018
  WS02006256           JUNCTION      0.00   300.00     0  00:00           0        2.05      -0.137
  WSF200               JUNCTION      0.00   537.47     0  03:14           0        4.14       0.008
  YS02001580           JUNCTION      0.00    75.66     0  01:59           0     0.00407       1.977
  YS02001583           JUNCTION      0.00   125.58     0  01:58           0      0.0153      -4.907
  YS02001586           JUNCTION    970.72   970.75     0  02:15        2.09         2.1       0.043
  YS02001590           JUNCTION      0.00   318.55     0  02:28           0        1.48      -0.022
  YS02001593           JUNCTION      0.00   318.18     0  02:28           0        1.48      -0.004
  YS02001596           JUNCTION      0.00   318.02     0  02:14           0        1.48      -0.023
  YS02001600           JUNCTION      0.00   318.11     0  02:08           0        1.48       0.019
  YS02001601           JUNCTION   1703.59  2021.23     0  02:14        2.86        4.34       0.019
  YS02001602           JUNCTION      0.00   499.12     0  01:58           0        2.46       0.018
  YS02001605           JUNCTION      0.00   498.42     0  01:58           0        2.31       0.024
  YS02001607           JUNCTION      0.00   497.71     0  01:58           0        2.31       0.085
  YS02001610           JUNCTION      0.00   950.33     0  02:16           0        2.75       0.084
  YS02001613           JUNCTION      0.00   614.59     0  02:16           0        2.16       0.076
  YS02001616           JUNCTION      0.00   614.35     0  02:16           0        2.16       0.016
  YS02001619           JUNCTION   1724.32  1724.32     0  02:15        3.36        5.07      -0.000
  YS02001622           JUNCTION      0.00  1053.31     0  02:14           0        4.62      -0.001
  YS02001625           JUNCTION      0.00  1503.23     0  02:16           0        4.99       0.201
  YS02001629           JUNCTION      0.00   911.34     0  02:02           0        3.62       0.009
  YS02001633           JUNCTION   1281.83  1301.08     0  02:02        2.09        5.28       0.068
  YS02001641           JUNCTION      0.00  1296.98     0  02:02           0        4.86       0.056
  YS02001644           JUNCTION   1142.88  1941.30     0  02:13        1.82        6.69       0.047
  YS02001647           JUNCTION      0.00  1651.21     0  02:02           0         5.7       0.005
  YS02001649           JUNCTION      0.00  1816.90     0  02:01           0        7.35      -0.002
  YS02001652           JUNCTION      0.00  1137.82     0  02:13           0        1.67      -0.054
  YS02001655           JUNCTION      0.15  1138.30     0  02:13     0.00439        1.67      -0.008
  YS02001658           JUNCTION      0.00  1137.16     0  02:13           0        1.67      -0.033
  YS02001661           JUNCTION      0.00  1136.57     0  02:13           0        1.67       0.012
  YS02001664           JUNCTION   1121.13  1121.13     0  02:13        1.67        1.67      -0.007
  YS02001745           JUNCTION    707.10   707.10     0  02:13           1           1       0.135
  YS02001748           JUNCTION      0.04   716.73     0  02:13     0.00128           1      -0.215
  YS02001751           JUNCTION      0.01   716.33     0  02:13    0.000313        1.01       0.077
  YS02001754           JUNCTION      0.26   717.84     0  02:13     0.00741        1.02      -0.148
  YS02001757           JUNCTION      0.00  3071.58     0  02:12           0        11.4       0.004
  YS02001759           JUNCTION    984.02  1333.48     0  02:13        1.39        3.04      -0.016
  YS02001762           JUNCTION      0.00   690.56     0  02:07           0        1.66      -0.029
  YS02001765           JUNCTION      0.00   690.75     0  02:07           0        1.66      -0.018
  YS02001767           JUNCTION      0.54   691.51     0  02:07      0.0152        1.66      -0.008
  YS02001770           JUNCTION   1379.40  1379.40     0  02:13        2.11        2.15      -0.041
  YS02001774           JUNCTION      0.00   850.03     0  02:15           0       0.505       0.145
  YS02001779           JUNCTION      0.01   850.08     0  02:15    0.000142        0.46      -0.173
  YS02001783           JUNCTION      0.00  1169.30     0  02:11           0         4.5       0.003
  YS02001784           JUNCTION      1.06  1170.24     0  02:11      0.0302        4.53       0.011
  YS02001786           JUNCTION      0.06  1169.97     0  02:11      0.0016        4.53       0.016
  YS02001788           JUNCTION      0.07  1170.91     0  02:11     0.00202        4.53       0.007
  YS02001790           JUNCTION      0.15  1181.42     0  02:12     0.00442        4.54       0.022
  YS02001791           JUNCTION      0.00  1289.64     0  02:12           0        4.54      -0.026
  YS02001793           JUNCTION      0.00  1254.11     0  02:12           0        4.54       0.003
  YS02001882           JUNCTION      0.00    37.33     0  02:01           0      0.0128       4.117
  YS02001884           JUNCTION      0.00    43.92     0  02:00           0      0.0489       5.038
  YS02001887           JUNCTION   1057.09  1057.09     0  02:13        1.44        1.48       0.292
  YS02001890           JUNCTION      0.00  1057.16     0  02:13           0        1.44       0.350
  YS02001895           JUNCTION      0.00   517.52     0  02:18           0        1.23       0.127
  YS02001898           JUNCTION      0.00   517.38     0  02:18           0        1.23       0.005
  YS02001901           JUNCTION      0.00   517.36     0  02:18           0        1.23       0.258
  YS02001904           JUNCTION      0.00   517.75     0  02:18           0        1.24       0.217
  YS02001907           JUNCTION      0.00  2605.95     0  02:14           0        4.43       0.408
  YS02001910           JUNCTION      0.00  1844.64     0  02:14           0        3.15       0.226
  YS02001915           JUNCTION   1234.32  1844.60     0  02:14        2.01        3.17       0.040
  YS02001918           JUNCTION      0.00   610.31     0  02:14           0        1.19      -0.009
  YS02001920           JUNCTION      2.87   610.21     0  02:14      0.0818        1.17       0.064
  YS02001923           JUNCTION      0.04   606.22     0  02:14     0.00107        1.08      -0.014
  YS02001926           JUNCTION      0.05   606.10     0  02:14     0.00149        1.06      -0.014
  YS02001929           JUNCTION    603.17   603.17     0  02:14        1.06        1.06      -0.069
  YS02006553           JUNCTION      0.00   801.18     0  02:31           0        2.54       0.470
  YS02006556           JUNCTION      0.00   801.17     0  02:31           0        2.54       0.319
  YS02006558           JUNCTION   1419.86  1419.86     0  02:13        2.11        4.58       0.071
  YS02006561           JUNCTION      0.00  1169.01     0  02:11           0         4.5      -0.001
  YS02163301           JUNCTION      0.00   913.25     0  02:02           0        3.62       0.040
  YS02163601           JUNCTION      0.11  1300.64     0  02:02     0.00313        4.86       0.104
  YS02164001           JUNCTION      0.00  1299.79     0  02:02           0        4.85       0.042
  CC-1                 OUTFALL       0.00   683.00     0  00:00           0         4.6       0.000
  CC-2                 OUTFALL       0.00   683.00     0  00:00           0        4.38       0.000
  JK-1                 OUTFALL       0.00  1000.00     0  00:00           0         2.5       0.000
  JK-2                 OUTFALL       0.00  1000.00     0  00:00           0      0.0484       0.000
  WSC                  OUTFALL       0.00   555.47     0  03:17           0        4.66       0.000
  CC-storage           STORAGE       0.00  3071.22     0  02:12           0        13.6      -0.142
  JK-storage           STORAGE       0.00  1254.57     0  02:12           0        4.69      -0.216
  
  
  **********************
  Node Surcharge Summary
  **********************
  
  Surcharging occurs when water rises above the top of the highest conduit.
  ---------------------------------------------------------------------
                                               Max. Height   Min. Depth
                                   Hours       Above Crown    Below Rim
  Node                 Type      Surcharged         Meters       Meters
  ---------------------------------------------------------------------
  WS02006109           JUNCTION        1.82          0.205        1.615
  WS02006110           JUNCTION        1.44          0.070        1.780
  WS02006112           JUNCTION        1.41          0.065        1.615
  WS02006228           JUNCTION        1.82          0.224        1.976
  WS02006229           JUNCTION        1.83          0.257        2.193
  WS02006230           JUNCTION        1.45          0.093        1.477
  WS02006231           JUNCTION        1.46          0.211        1.319
  WS02006232           JUNCTION        1.87          0.422        1.058
  WS02006234           JUNCTION        1.52          0.419        0.821
  WS02006235           JUNCTION        1.83          0.513        0.777
  WS02006238           JUNCTION        1.85          0.535        0.895
  WS02006239           JUNCTION        1.82          0.498        0.792
  WS02006240           JUNCTION        1.81          0.486        0.904
  WS02006242           JUNCTION        1.83          0.538        0.282
  WS02006243           JUNCTION        1.81          0.453        0.317
  WS02006245           JUNCTION        1.81          0.434        0.416
  WS02006247           JUNCTION        1.81          0.444        0.316
  WS02006248           JUNCTION        1.80          0.368        0.012
  WS02006249           JUNCTION        1.80          0.390        0.000
  WS02006251           JUNCTION        1.47          0.706        0.474
  WS02006252           JUNCTION        1.97          1.100        0.000
  WS02006256           JUNCTION        3.75          2.050        0.000
  YS02001580           JUNCTION        0.75          0.450        0.000
  YS02001583           JUNCTION        0.76          0.500        0.000
  YS02001586           JUNCTION        0.90          0.510        0.000
  YS02001590           JUNCTION        0.99          0.750        0.000
  YS02001593           JUNCTION        0.99          0.840        0.000
  YS02001596           JUNCTION        1.12          1.070        0.000
  YS02001600           JUNCTION        1.27          1.190        0.000
  YS02001601           JUNCTION        1.58          1.440        0.000
  YS02001602           JUNCTION        1.48          1.270        0.000
  YS02001605           JUNCTION        1.43          1.180        0.000
  YS02001607           JUNCTION        0.99          0.646        0.034
  YS02001610           JUNCTION        1.02          0.680        0.000
  YS02001613           JUNCTION        0.99          0.677        0.023
  YS02001616           JUNCTION        0.94          0.610        0.000
  YS02001619           JUNCTION        0.93          0.610        0.000
  YS02001622           JUNCTION        0.93          0.584        0.036
  YS02001625           JUNCTION        1.12          0.780        0.000
  YS02001629           JUNCTION        0.87          0.470        0.000
  YS02001633           JUNCTION        1.15          0.998        0.062
  YS02001641           JUNCTION        1.10          0.951        0.149
  YS02001644           JUNCTION        1.08          0.920        0.000
  YS02001647           JUNCTION        0.86          0.766        0.134
  YS02001649           JUNCTION        1.00          1.012        0.038
  YS02001652           JUNCTION        0.80          0.837        0.293
  YS02001655           JUNCTION        0.63          0.697        0.503
  YS02001658           JUNCTION        0.36          0.590        0.710
  YS02001661           JUNCTION        0.11          0.187        1.203
  YS02001748           JUNCTION        0.29          0.377        0.813
  YS02001751           JUNCTION        0.49          0.528        0.672
  YS02001754           JUNCTION        0.72          0.724        0.426
  YS02001757           JUNCTION        1.07          1.086        0.124
  YS02001759           JUNCTION        0.99          1.077        0.133
  YS02001762           JUNCTION        0.96          1.058        0.092
  YS02001765           JUNCTION        0.91          1.100        0.000
  YS02001767           JUNCTION        0.88          1.023        0.007
  YS02001770           JUNCTION        0.84          0.920        0.000
  YS02001774           JUNCTION        0.94          1.050        0.000
  YS02001779           JUNCTION        0.71          0.680        0.000
  YS02001783           JUNCTION        0.64          0.445        1.155
  YS02001784           JUNCTION        0.62          0.331        1.159
  YS02001786           JUNCTION        0.50          0.085        1.345
  YS02001882           JUNCTION        0.58          0.672        0.158
  YS02001884           JUNCTION        0.59          0.710        0.160
  YS02001887           JUNCTION        0.63          0.802        0.148
  YS02001890           JUNCTION        0.65          0.760        0.000
  YS02001895           JUNCTION        0.57          0.570        0.180
  YS02001898           JUNCTION        0.56          0.545        0.195
  YS02001901           JUNCTION        0.62          0.686        0.184
  YS02001904           JUNCTION        0.61          0.646        0.204
  YS02001907           JUNCTION        0.90          0.950        0.000
  YS02001910           JUNCTION        0.68          0.980        0.120
  YS02001915           JUNCTION        0.58          0.950        0.050
  YS02001918           JUNCTION        0.49          0.810        0.000
  YS02001920           JUNCTION        0.50          1.062        0.078
  YS02001923           JUNCTION        0.18          0.726        0.094
  YS02001926           JUNCTION        0.22          0.827        0.073
  YS02001929           JUNCTION        0.06          0.780        0.000
  YS02006553           JUNCTION        0.92          0.997        0.193
  YS02006556           JUNCTION        0.79          0.936        0.414
  YS02006558           JUNCTION        0.77          0.934        0.466
  YS02006561           JUNCTION        0.45          0.114        1.036
  YS02163301           JUNCTION        1.13          0.930        0.100
  YS02163601           JUNCTION        1.19          1.025        0.055
  YS02164001           JUNCTION        1.10          0.946        0.154
  
  
  *********************
  Node Flooding Summary
  *********************
  
  Flooding refers to all water that overflows a node, whether it ponds or not.
  --------------------------------------------------------------------------
                                                             Total   Maximum
                                 Maximum   Time of Max       Flood    Ponded
                        Hours       Rate    Occurrence      Volume     Depth
  Node                 Flooded       LPS   days hr:min    10^6 ltr    Meters
  --------------------------------------------------------------------------
  WS02006249              1.46    128.25      0  01:59       0.373     0.000
  WS02006252              0.01    245.63      0  00:00       0.000     0.000
  WS02006256              1.90    293.19      0  00:00       0.628     0.000
  YS02001580              0.01     33.33      0  01:59       0.000     0.000
  YS02001583              0.01     59.22      0  01:59       0.000     0.000
  YS02001586              0.60    653.09      0  02:15       0.609     0.000
  YS02001590              0.01      7.17      0  01:59       0.000     0.000
  YS02001593              0.01      1.27      0  01:57       0.000     0.000
  YS02001596              0.01      0.65      0  01:57       0.000     0.000
  YS02001600              0.01      1.86      0  01:59       0.000     0.000
  YS02001601              0.83   1623.09      0  02:14       1.881     0.000
  YS02001602              0.71     62.01      0  02:10       0.148     0.000
  YS02001605              0.01      0.41      0  02:07       0.000     0.000
  YS02001610              0.64    950.33      0  02:16       1.033     0.000
  YS02001616              0.02      1.65      0  02:13       0.000     0.000
  YS02001619              0.07     77.38      0  02:14       0.012     0.000
  YS02001625              0.62   1503.20      0  02:16       1.787     0.000
  YS02001629              0.20    200.72      0  02:14       0.059     0.000
  YS02001644              0.31   1940.90      0  02:13       0.997     0.000
  YS02001765              0.01     52.57      0  02:03       0.000     0.000
  YS02001770              0.07    201.09      0  02:13       0.027     0.000
  YS02001774              0.01     14.15      0  02:03       0.000     0.000
  YS02001779              0.27    850.06      0  02:15       0.441     0.000
  YS02001890              0.24    540.81      0  02:13       0.199     0.000
  YS02001907              0.43   2605.30      0  02:14       1.935     0.000
  YS02001918              0.01     76.10      0  02:05       0.000     0.000
  YS02001929              0.01    211.96      0  02:05       0.000     0.000
  
  
  **********************
  Storage Volume Summary
  **********************
  
  ------------------------------------------------------------------------------------------------
                         Average    Avg   Evap  Exfil     Maximum    Max    Time of Max    Maximum
                          Volume   Pcnt   Pcnt   Pcnt      Volume   Pcnt     Occurrence    Outflow
  Storage Unit           1000 m³   Full   Loss   Loss     1000 m³   Full    days hr:min        LPS
  ------------------------------------------------------------------------------------------------
  CC-storage               2.644   41.2    0.0    0.0       5.201   81.1       0  02:39    1783.53
  JK-storage               0.114   39.2    0.0    0.0       0.212   72.7       0  02:16    2300.00
  
  
  ***********************
  Outfall Loading Summary
  ***********************
  
  -----------------------------------------------------------
                         Flow       Avg       Max       Total
                         Freq      Flow      Flow      Volume
  Outfall Node           Pcnt       LPS       LPS    10^6 ltr
  -----------------------------------------------------------
  CC-1                  37.68    683.00    683.00       4.603
  CC-2                  35.65    683.00    683.00       4.376
  JK-1                  16.69   1000.00   1000.00       2.503
  JK-2                   0.24   1000.00   1000.00       0.048
  WSC                   99.93    229.29    555.47       4.658
  -----------------------------------------------------------
  System                38.04   3595.29   3366.23      16.189
  
  
  ********************
  Link Flow Summary
  ********************
  
  -----------------------------------------------------------------------------
                                 Maximum  Time of Max   Maximum    Max/    Max/
                                  |Flow|   Occurrence   |Veloc|    Full    Full
  Link                 Type          LPS  days hr:min     m/sec    Flow   Depth
  -----------------------------------------------------------------------------
  1                    CONDUIT    555.47     0  03:17      2.83    0.19    0.30
  WS02003060WS02003069 CONDUIT    553.97     0  03:15      1.64    0.22    0.34
  WS02003066WSF200     CONDUIT    537.47     0  03:14      2.85    0.09    0.22
  WS02003067WS02003066 CONDUIT    537.41     0  03:14      1.21    0.17    0.42
  WS02003069WS02003072 CONDUIT    553.96     0  03:15      1.37    0.27    0.39
  WS02003072WS02003073 CONDUIT    553.79     0  03:16      1.44    1.20    0.37
  WS02004401WS02004402 CONDUIT    540.44     0  03:11      1.23    0.65    0.86
  WS02004402WS02004403 CONDUIT    539.88     0  03:11      1.24    0.78    0.88
  WS02004403WS02004404 CONDUIT    539.46     0  03:11      1.17    0.39    0.93
  WS02004404WS02004405 CONDUIT    539.40     0  03:11      1.43    5.28    0.96
  WS02004405WS02004406 CONDUIT    539.57     0  03:12      1.39    1.06    0.96
  WS02004406WS02004407 CONDUIT    538.91     0  03:12      1.04    0.24    0.63
  WS02004407WS02004409 CONDUIT    538.53     0  03:12      1.55    0.19    0.48
  WS02004409WS02004410 CONDUIT    538.16     0  03:12      1.01    0.70    0.67
  WS02004410WS02004411 CONDUIT    537.88     0  03:13      0.94    0.73    0.69
  WS02004411WS02004412 CONDUIT    537.70     0  03:13      0.92    0.76    0.69
  WS02004412WS02004413 CONDUIT    537.65     0  03:13      0.87    0.36    0.78
  WS02004413WS02003067 CONDUIT    537.35     0  03:13      1.11    0.23    0.59
  WS02006109WS02006110 CONDUIT    542.39     0  02:00      1.08    1.04    1.00
  WS02006110WS02006113 CONDUIT    555.18     0  02:00      1.34    0.51    0.78
  WS02006111WS02006112 CONDUIT    542.75     0  03:10      1.96    0.26    0.67
  WS02006112WS02006115 CONDUIT    547.71     0  03:10      0.80    0.32    0.87
  WS02006113WS02006111 CONDUIT    559.99     0  02:30      2.46    0.67    0.46
  WS02006115WS02006116 CONDUIT    543.19     0  03:11      1.19    0.70    0.76
  WS02006116WS02004401 CONDUIT    541.20     0  03:11      1.22    0.75    0.84
  WS02006228WS02006109 CONDUIT    540.69     0  02:00      1.08    2.36    1.00
  WS02006229WS02006228 CONDUIT    540.06     0  02:00      1.14    1.79    1.00
  WS02006230WS02006229 CONDUIT    540.70     0  02:00      1.40   12.03    1.00
  WS02006231WS02006230 CONDUIT    528.68     0  02:00      1.39    8.02    1.00
  WS02006232WS02006231 CONDUIT    530.39     0  02:00      1.38    1.11    1.00
  WS02006234WS02006232 CONDUIT    530.98     0  02:00      1.41    1.07    1.00
  WS02006235WS02006234 CONDUIT    532.05     0  02:00      1.38    5.61    1.00
  WS02006238WS02006235 CONDUIT    417.78     0  03:27      1.48    0.93    1.00
  WS02006239WS02006238 CONDUIT    417.68     0  03:27      1.10    1.34    1.00
  WS02006240WS02006239 CONDUIT    417.33     0  03:27      1.24    1.31    1.00
  WS02006242WS02006240 CONDUIT    415.73     0  03:27      1.13    1.65    1.00
  WS02006243WS02006242 CONDUIT    415.86     0  03:27      1.40    0.89    1.00
  WS02006245WS02006243 CONDUIT    415.30     0  03:27      1.45    1.23    1.00
  WS02006247WS02006245 CONDUIT    414.46     0  03:27      1.43    3.29    1.00
  WS02006248WS02006247 CONDUIT    414.00     0  03:27      1.44    0.90    1.00
  WS02006249WS02006248 CONDUIT    413.61     0  03:27      1.36    2.27    1.00
  WS02006251WS02006249 CONDUIT    459.02     0  00:00      1.99    1.32    1.00
  WS02006252WS02006251 CONDUIT    413.37     0  01:59     25.30    1.52    1.00
  WS02006256WS02006235 CONDUIT    288.91     0  00:00      4.23    3.06    1.00
  WSF200WS02003060     CONDUIT    537.63     0  03:14      2.06    0.12    0.28
  YS02001580YS02001583 CONDUIT     75.66     0  01:59      0.55    0.29    1.00
  YS02001583YS02001586 CONDUIT    125.58     0  01:58      0.52    0.19    1.00
  YS02001586YS02001590 CONDUIT    318.55     0  02:28      1.24    0.56    1.00
  YS02001590YS02001593 CONDUIT    318.18     0  02:28      1.13    2.00    1.00
  YS02001593YS02001596 CONDUIT    318.02     0  02:14      1.72    0.50    1.00
  YS02001596YS02001600 CONDUIT    318.11     0  02:08      1.27    0.62    1.00
  YS02001600YS02001601 CONDUIT    318.06     0  02:28      1.12    0.55    1.00
  YS02001601YS02001602 CONDUIT    499.12     0  01:58      1.77    1.80    1.00
  YS02001602YS02001605 CONDUIT    498.42     0  01:58      1.76   10.55    1.00
  YS02001605YS02001607 CONDUIT    497.71     0  01:58      1.76    2.73    1.00
  YS02001607YS02001610 CONDUIT    497.73     0  01:58      0.63    0.47    1.00
  YS02001610YS02001613 CONDUIT    614.33     0  02:16      0.78    0.71    1.00
  YS02001613YS02001616 CONDUIT    614.59     0  02:16      0.78    0.53    1.00
  YS02001616YS02001619 CONDUIT    614.35     0  02:16      0.78    1.07    1.00
  YS02001619YS02001622 CONDUIT   1053.31     0  02:14      1.34    1.55    1.00
  YS02001622YS02001625 CONDUIT   1053.21     0  02:16      1.34    0.56    1.00
  YS02001625YS02001629 CONDUIT    911.34     0  02:02      1.16    0.43    1.00
  YS02001629YS02163301 CONDUIT    913.25     0  02:02      1.16    1.12    1.00
  YS02001633YS02163601 CONDUIT   1300.53     0  02:02      1.66    1.37    1.00
  YS02001641YS02001644 CONDUIT   1296.39     0  02:02      1.65    4.19    1.00
  YS02001644YS02001647 CONDUIT   1651.21     0  02:02      2.14    0.97    1.00
  YS02001647YS02001649 CONDUIT   1659.56     0  02:02      2.28    0.88    1.00
  YS02001649YS02001757 CONDUIT   1778.90     0  02:04      2.35    1.08    1.00
  YS02001652YS02001649 CONDUIT   1138.43     0  02:13      1.45    0.56    1.00
  YS02001655YS02001652 CONDUIT   1137.82     0  02:13      1.45    0.55    1.00
  YS02001658YS02001655 CONDUIT   1138.14     0  02:13      1.84    0.48    1.00
  YS02001661YS02001658 CONDUIT   1137.16     0  02:13      2.19    0.45    1.00
  YS02001664YS02001661 CONDUIT   1136.57     0  02:13      2.10    0.36    0.87
  YS02001745YS02001748 CONDUIT    716.69     0  02:13      2.03    0.28    0.97
  YS02001748YS02001751 CONDUIT    716.32     0  02:13      1.60    0.36    1.00
  YS02001751YS02001754 CONDUIT    717.58     0  02:13      1.41    0.35    1.00
  YS02001754YS02001757 CONDUIT    717.52     0  02:13      0.91    0.29    1.00
  YS02001757CaochengTiaoxuchi CONDUIT   3071.22     0  02:12      3.91    1.33    1.00
  YS02001759YS02001757 CONDUIT   1334.82     0  02:13      1.70    0.95    1.00
  YS02001762YS02001759 CONDUIT    690.93     0  02:07      0.88    0.80    1.00
  YS02001765YS02001762 CONDUIT    690.56     0  02:07      0.88    0.65    1.00
  YS02001767YS02001765 CONDUIT    690.75     0  02:07      0.88    0.87    1.00
  YS02001770YS02001767 CONDUIT    690.98     0  02:07      0.88    2.74    1.00
  YS02001774YS02001770 CONDUIT    850.03     0  02:15      1.08    0.54    1.00
  YS02001779YS02001774 CONDUIT    850.08     0  02:15      1.08    0.43    1.00
  YS02001783YS02001784 CONDUIT   1169.18     0  02:11      2.33    1.61    1.00
  YS02001784YS02001785 CONDUIT   1169.92     0  02:11      2.33    2.72    1.00
  YS02001786YS02001788 CONDUIT   1170.84     0  02:11      2.49    2.26    0.89
  YS02001788YS02001790 CONDUIT   1181.27     0  02:12      2.72    0.87    0.84
  YS02001790YS02001791 CONDUIT   1289.64     0  02:12      3.43    1.40    0.71
  YS02001791YS02001793 CONDUIT   1254.11     0  02:12      6.78    0.54    0.44
  YS02001793JiankangQianchi CONDUIT   1254.57     0  02:12      2.52    0.10    0.65
  YS02001882YS02001884 CONDUIT     37.33     0  02:01      0.14    0.04    1.00
  YS02001884YS02001887 CONDUIT     43.92     0  02:00      0.10    0.06    1.00
  YS02001887YS02001890 CONDUIT   1057.16     0  02:13      1.35    1.81    1.00
  YS02001890YS02001895 CONDUIT    517.52     0  02:18      0.66    0.24    1.00
  YS02001895YS02001898 CONDUIT    517.38     0  02:18      0.66    0.90    1.00
  YS02001898YS02001901 CONDUIT    517.36     0  02:18      0.66    0.33    1.00
  YS02001901YS02001904 CONDUIT    517.75     0  02:18      0.66    0.80    1.00
  YS02001904YS02001907 CONDUIT    517.73     0  02:18      0.66    0.18    1.00
  YS02001907YS02006553 CONDUIT    801.18     0  02:31      0.89    0.94    1.00
  YS02001910YS02001907 CONDUIT   1845.11     0  02:14      2.35    1.04    1.00
  YS02001915YS02001910 CONDUIT   1844.64     0  02:14      2.35    0.92    1.00
  YS02001918YS02001915 CONDUIT    610.83     0  02:14      0.78    0.34    1.00
  YS02001920YS02001918 CONDUIT    610.31     0  02:14      0.78    0.59    1.00
  YS02001923YS02001920 CONDUIT    607.34     0  02:14      0.77    0.27    1.00
  YS02001926YS02001923 CONDUIT    606.18     0  02:14      0.94    0.87    1.00
  YS02001929YS02001926 CONDUIT    606.04     0  02:14      1.08    0.29    1.00
  YS02006553YS02006556 CONDUIT    801.17     0  02:31      1.02    0.69    1.00
  YS02006556YS02006558 CONDUIT    803.64     0  02:31      1.02    0.63    1.00
  YS02006558YS02006561 CONDUIT   1169.01     0  02:11      4.13    2.58    1.00
  YS02006561YS02001783 CONDUIT   1169.30     0  02:11      2.33    0.61    1.00
  YS02163301YS02001633 CONDUIT    912.35     0  02:02      1.16    0.86    1.00
  YS02163601YS02164001 CONDUIT   1299.79     0  02:02      1.65    1.15    1.00
  YS02164001YS02001641 CONDUIT   1296.98     0  02:02      1.65    1.77    1.00
  CC-R1                PUMP       683.00     0  00:00              1.00
  CC-R2                PUMP       683.00     0  00:00              1.00
  CC-S1                PUMP       200.00     0  00:00              1.00
  CC-S2                PUMP       200.00     0  00:00              1.00
  JK-R1                PUMP      1000.00     0  00:00              1.00
  JK-R2                PUMP      1000.00     0  00:00              1.00
  JK-S                 PUMP       300.00     0  00:00              1.00
  
  
  ***************************
  Flow Classification Summary
  ***************************
  
  -------------------------------------------------------------------------------------
                      Adjusted    ---------- Fraction of Time in Flow Class ---------- 
                       /Actual         Up    Down  Sub   Sup   Up    Down  Norm  Inlet 
  Conduit               Length    Dry  Dry   Dry   Crit  Crit  Crit  Crit  Ltd   Ctrl  
  -------------------------------------------------------------------------------------
  1                       1.00   0.00  0.00  0.00  0.00  1.00  0.00  0.00  0.60  0.00
  WS02003060WS02003069    1.00   0.00  0.00  0.00  0.96  0.04  0.00  0.00  0.72  0.00
  WS02003066WSF200        1.00   0.06  0.00  0.00  0.00  0.94  0.00  0.00  0.73  0.00
  WS02003067WS02003066    1.00   0.05  0.01  0.00  0.94  0.00  0.00  0.00  0.00  0.00
  WS02003069WS02003072    1.00   0.00  0.00  0.00  0.99  0.01  0.00  0.00  0.75  0.00
  WS02003072WS02003073    1.00   0.00  0.00  0.00  0.00  0.00  0.00  1.00  0.00  0.00
  WS02004401WS02004402    1.00   0.02  0.00  0.00  0.98  0.00  0.00  0.00  0.00  0.00
  WS02004402WS02004403    1.00   0.02  0.00  0.00  0.98  0.00  0.00  0.00  0.00  0.00
  WS02004403WS02004404    1.00   0.00  0.03  0.00  0.97  0.00  0.00  0.00  0.00  0.00
  WS02004404WS02004405    1.00   0.00  0.00  0.00  1.00  0.00  0.00  0.00  0.01  0.00
  WS02004405WS02004406    1.00   0.00  0.00  0.00  1.00  0.00  0.00  0.00  0.00  0.00
  WS02004406WS02004407    1.00   0.00  0.03  0.00  0.96  0.00  0.00  0.00  0.00  0.00
  WS02004407WS02004409    1.00   0.04  0.00  0.00  0.95  0.01  0.00  0.00  0.96  0.00
  WS02004409WS02004410    1.00   0.04  0.00  0.00  0.96  0.00  0.00  0.00  0.00  0.00
  WS02004410WS02004411    1.00   0.04  0.00  0.00  0.96  0.00  0.00  0.00  0.00  0.00
  WS02004411WS02004412    1.00   0.04  0.00  0.00  0.96  0.00  0.00  0.00  0.00  0.00
  WS02004412WS02004413    1.00   0.04  0.00  0.00  0.96  0.00  0.00  0.00  0.00  0.00
  WS02004413WS02003067    1.00   0.04  0.01  0.00  0.00  0.00  0.95  0.00  0.00  0.00
  WS02006109WS02006110    1.00   0.00  0.01  0.00  0.98  0.00  0.01  0.00  0.00  0.00
  WS02006110WS02006113    1.00   0.01  0.01  0.00  0.98  0.00  0.00  0.00  0.00  0.00
  WS02006111WS02006112    1.00   0.02  0.00  0.00  0.98  0.00  0.00  0.00  0.98  0.00
  WS02006112WS02006115    1.00   0.02  0.00  0.00  0.97  0.00  0.00  0.00  0.00  0.00
  WS02006113WS02006111    1.00   0.02  0.00  0.00  0.00  0.98  0.00  0.00  0.12  0.00
  WS02006115WS02006116    1.00   0.02  0.00  0.00  0.97  0.00  0.00  0.01  0.00  0.00
  WS02006116WS02004401    1.00   0.02  0.00  0.00  0.98  0.00  0.00  0.00  0.00  0.00
  WS02006228WS02006109    1.00   0.00  0.00  0.00  1.00  0.00  0.00  0.00  0.00  0.00
  WS02006229WS02006228    1.00   0.00  0.00  0.00  0.99  0.00  0.00  0.01  0.00  0.00
  WS02006230WS02006229    1.00   0.00  0.00  0.00  0.99  0.00  0.00  0.01  0.00  0.00
  WS02006231WS02006230    1.00   0.00  0.00  0.00  0.24  0.00  0.76  0.00  0.00  0.00
  WS02006232WS02006231    1.00   0.00  0.00  0.00  0.99  0.00  0.01  0.00  0.00  0.00
  WS02006234WS02006232    1.00   0.00  0.00  0.00  1.00  0.00  0.00  0.00  0.38  0.00
  WS02006235WS02006234    1.00   0.00  0.00  0.00  0.56  0.00  0.44  0.00  0.00  0.00
  WS02006238WS02006235    1.00   0.00  0.00  0.00  1.00  0.00  0.00  0.00  0.00  0.00
  WS02006239WS02006238    1.00   0.00  0.00  0.00  1.00  0.00  0.00  0.00  0.53  0.00
  WS02006240WS02006239    1.00   0.00  0.00  0.00  0.42  0.00  0.00  0.58  0.02  0.00
  WS02006242WS02006240    1.00   0.00  0.00  0.00  1.00  0.00  0.00  0.00  0.00  0.00
  WS02006243WS02006242    1.00   0.00  0.00  0.00  0.99  0.00  0.00  0.00  0.67  0.00
  WS02006245WS02006243    1.00   0.00  0.00  0.00  0.48  0.00  0.00  0.52  0.00  0.00
  WS02006247WS02006245    1.00   0.00  0.00  0.00  0.99  0.00  0.00  0.01  0.00  0.00
  WS02006248WS02006247    1.00   0.00  0.00  0.00  0.99  0.00  0.00  0.01  0.18  0.00
  WS02006249WS02006248    1.00   0.00  0.00  0.00  0.30  0.00  0.70  0.00  0.00  0.00
  WS02006251WS02006249    1.00   0.00  0.00  0.00  1.00  0.00  0.00  0.00  0.71  0.00
  WS02006252WS02006251    1.00   0.00  0.73  0.00  0.19  0.00  0.08  0.00  0.00  0.00
  WS02006256WS02006235    1.00   0.00  0.00  0.00  0.99  0.00  0.00  0.00  0.00  0.00
  WSF200WS02003060        1.00   0.00  0.06  0.00  0.50  0.43  0.00  0.00  0.67  0.00
  YS02001580YS02001583    1.00   0.25  0.54  0.00  0.22  0.00  0.00  0.00  0.63  0.00
  YS02001583YS02001586    1.00   0.40  0.33  0.00  0.27  0.00  0.00  0.00  0.63  0.00
  YS02001586YS02001590    1.00   0.13  0.00  0.00  0.46  0.04  0.00  0.38  0.37  0.00
  YS02001590YS02001593    1.00   0.13  0.01  0.00  0.14  0.00  0.72  0.00  0.00  0.00
  YS02001593YS02001596    1.00   0.13  0.00  0.00  0.16  0.01  0.00  0.70  0.02  0.00
  YS02001596YS02001600    1.00   0.14  0.00  0.00  0.22  0.01  0.00  0.63  0.04  0.00
  YS02001600YS02001601    1.00   0.13  0.01  0.00  0.86  0.00  0.00  0.00  0.58  0.00
  YS02001601YS02001602    1.00   0.13  0.01  0.00  0.87  0.00  0.00  0.00  0.00  0.00
  YS02001602YS02001605    1.00   0.14  0.00  0.00  0.86  0.00  0.00  0.00  0.00  0.00
  YS02001605YS02001607    1.00   0.14  0.00  0.00  0.86  0.00  0.00  0.00  0.00  0.00
  YS02001607YS02001610    1.00   0.13  0.01  0.00  0.86  0.00  0.00  0.00  0.01  0.00
  YS02001610YS02001613    1.00   0.13  0.00  0.00  0.87  0.00  0.00  0.00  0.00  0.00
  YS02001613YS02001616    1.00   0.13  0.00  0.00  0.87  0.00  0.00  0.00  0.00  0.00
  YS02001616YS02001619    1.00   0.13  0.00  0.00  0.87  0.00  0.00  0.00  0.00  0.00
  YS02001619YS02001622    1.00   0.13  0.00  0.00  0.87  0.00  0.00  0.00  0.27  0.00
  YS02001622YS02001625    1.00   0.13  0.00  0.00  0.87  0.00  0.00  0.00  0.04  0.00
  YS02001625YS02001629    1.00   0.13  0.04  0.00  0.19  0.00  0.64  0.00  0.00  0.00
  YS02001629YS02163301    1.00   0.15  0.01  0.00  0.84  0.00  0.00  0.00  0.00  0.00
  YS02001633YS02163601    1.00   0.00  0.01  0.00  0.99  0.00  0.00  0.00  0.15  0.00
  YS02001641YS02001644    1.00   0.00  0.01  0.00  0.99  0.00  0.00  0.00  0.00  0.00
  YS02001644YS02001647    1.00   0.00  0.17  0.00  0.83  0.00  0.00  0.00  0.00  0.00
  YS02001647YS02001649    1.00   0.00  0.17  0.00  0.55  0.28  0.00  0.00  0.55  0.00
  YS02001649YS02001757    1.00   0.00  0.00  0.00  0.69  0.31  0.00  0.00  0.42  0.00
  YS02001652YS02001649    1.00   0.00  0.00  0.00  0.97  0.03  0.00  0.00  0.72  0.00
  YS02001655YS02001652    1.00   0.00  0.00  0.00  0.21  0.01  0.00  0.78  0.04  0.00
  YS02001658YS02001655    1.00   0.00  0.14  0.00  0.69  0.17  0.00  0.00  0.66  0.00
  YS02001661YS02001658    1.00   0.14  0.00  0.00  0.52  0.34  0.00  0.00  0.67  0.00
  YS02001664YS02001661    1.00   0.13  0.00  0.00  0.79  0.09  0.00  0.00  0.84  0.00
  YS02001745YS02001748    1.00   0.00  0.00  0.00  0.13  0.00  0.00  0.86  0.04  0.00
  YS02001748YS02001751    1.00   0.00  0.00  0.00  0.85  0.15  0.00  0.00  0.73  0.00
  YS02001751YS02001754    1.00   0.00  0.00  0.00  0.19  0.01  0.00  0.81  0.02  0.00
  YS02001754YS02001757    1.00   0.00  0.00  0.00  1.00  0.00  0.00  0.00  0.80  0.00
  YS02001757CaochengTiaoxuchi    1.00   0.00  0.00  0.00  1.00  0.00  0.00  0.00  0.78  0.00
  YS02001759YS02001757    1.00   0.00  0.00  0.00  0.99  0.01  0.00  0.00  0.59  0.00
  YS02001762YS02001759    1.00   0.00  0.00  0.00  1.00  0.00  0.00  0.00  0.05  0.00
  YS02001765YS02001762    1.00   0.00  0.00  0.00  1.00  0.00  0.00  0.00  0.70  0.00
  YS02001767YS02001765    1.00   0.00  0.00  0.00  1.00  0.00  0.00  0.00  0.00  0.00
  YS02001770YS02001767    1.00   0.00  0.00  0.00  1.00  0.00  0.00  0.00  0.00  0.00
  YS02001774YS02001770    1.00   0.00  0.13  0.00  0.71  0.00  0.15  0.00  0.03  0.00
  YS02001779YS02001774    1.00   0.00  0.00  0.00  1.00  0.00  0.00  0.00  0.74  0.00
  YS02001783YS02001784    1.00   0.00  0.18  0.00  0.82  0.00  0.00  0.00  0.54  0.00
  YS02001784YS02001785    1.00   0.00  0.00  0.00  1.00  0.00  0.00  0.00  0.16  0.00
  YS02001786YS02001788    1.00   0.00  0.00  0.00  0.79  0.21  0.00  0.00  0.00  0.00
  YS02001788YS02001790    1.00   0.00  0.00  0.00  0.22  0.78  0.00  0.00  0.79  0.00
  YS02001790YS02001791    1.00   0.00  0.00  0.00  0.01  0.99  0.00  0.00  0.16  0.00
  YS02001791YS02001793    1.00   0.00  0.00  0.00  0.00  1.00  0.00  0.00  0.01  0.00
  YS02001793JiankangQianchi    1.00   0.00  0.00  0.00  0.95  0.05  0.00  0.00  0.98  0.00
  YS02001882YS02001884    1.00   0.15  0.01  0.00  0.84  0.00  0.00  0.00  0.00  0.00
  YS02001884YS02001887    1.00   0.06  0.05  0.00  0.89  0.00  0.00  0.00  0.00  0.00
  YS02001887YS02001890    1.00   0.00  0.00  0.00  0.97  0.00  0.03  0.00  0.00  0.00
  YS02001890YS02001895    1.00   0.00  0.16  0.00  0.84  0.00  0.00  0.00  0.00  0.00
  YS02001895YS02001898    1.00   0.16  0.00  0.00  0.82  0.00  0.02  0.00  0.00  0.00
  YS02001898YS02001901    1.00   0.16  0.00  0.00  0.84  0.00  0.00  0.00  0.01  0.00
  YS02001901YS02001904    1.00   0.16  0.00  0.00  0.84  0.00  0.00  0.00  0.00  0.00
  YS02001904YS02001907    1.00   0.00  0.16  0.00  0.84  0.00  0.00  0.00  0.00  0.00
  YS02001907YS02006553    1.00   0.00  0.02  0.00  0.98  0.00  0.00  0.00  0.00  0.00
  YS02001910YS02001907    1.00   0.00  0.00  0.00  0.97  0.00  0.00  0.03  0.12  0.00
  YS02001915YS02001910    1.00   0.00  0.00  0.00  0.97  0.03  0.00  0.00  0.15  0.00
  YS02001918YS02001915    1.00   0.00  0.01  0.00  0.98  0.02  0.00  0.00  0.73  0.00
  YS02001920YS02001918    1.00   0.00  0.01  0.00  0.99  0.00  0.00  0.00  0.00  0.00
  YS02001923YS02001920    1.00   0.00  0.00  0.00  1.00  0.00  0.00  0.00  0.91  0.00
  YS02001926YS02001923    1.00   0.00  0.07  0.00  0.07  0.00  0.85  0.00  0.00  0.00
  YS02001929YS02001926    1.00   0.00  0.13  0.00  0.87  0.00  0.00  0.00  0.81  0.00
  YS02006553YS02006556    1.00   0.01  0.00  0.00  0.99  0.00  0.00  0.00  0.03  0.00
  YS02006556YS02006558    1.00   0.00  0.00  0.00  1.00  0.00  0.00  0.00  0.00  0.00
  YS02006558YS02006561    1.00   0.17  0.00  0.00  0.07  0.76  0.00  0.00  0.18  0.00
  YS02006561YS02001783    1.00   0.18  0.00  0.00  0.11  0.72  0.00  0.00  0.67  0.00
  YS02163301YS02001633    1.00   0.00  0.15  0.00  0.85  0.00  0.00  0.00  0.00  0.00
  YS02163601YS02164001    1.00   0.00  0.08  0.00  0.92  0.00  0.00  0.00  0.00  0.00
  YS02164001YS02001641    1.00   0.01  0.07  0.00  0.92  0.00  0.00  0.00  0.05  0.00
  
  
  *************************
  Conduit Surcharge Summary
  *************************
  
  ----------------------------------------------------------------------------
                                                           Hours        Hours 
                         --------- Hours Full --------   Above Full   Capacity
  Conduit                Both Ends  Upstream  Dnstream   Normal Flow   Limited
  ----------------------------------------------------------------------------
  WS02003072WS02003073        0.01      0.01      0.01      1.47         0.01
  WS02004404WS02004405        0.01      0.01      0.01      2.41         0.01
  WS02004405WS02004406        0.01      0.01      0.01      1.40         0.01
  WS02006109WS02006110        1.44      1.44      1.87      1.46         0.01
  WS02006110WS02006113        0.01      0.01      1.85      0.01         0.01
  WS02006111WS02006112        0.01      0.01      1.92      0.01         0.01
  WS02006112WS02006115        0.01      0.01      1.41      0.01         0.01
  WS02006228WS02006109        1.82      1.87      1.82      2.07         1.82
  WS02006229WS02006228        1.82      1.83      1.82      1.99         1.82
  WS02006230WS02006229        1.90      1.93      1.90      2.91         1.90
  WS02006231WS02006230        1.44      1.44      1.46      2.68         0.01
  WS02006232WS02006231        1.46      1.46      1.87      1.47         0.01
  WS02006234WS02006232        1.81      1.81      1.87      1.46         1.46
  WS02006235WS02006234        1.51      1.51      1.82      2.54         0.01
  WS02006238WS02006235        1.84      1.84      1.87      0.01         0.01
  WS02006239WS02006238        1.83      1.83      1.85      1.90         1.68
  WS02006240WS02006239        1.82      1.82      1.82      1.89         1.55
  WS02006242WS02006240        1.81      1.81      1.85      1.94         0.01
  WS02006243WS02006242        1.81      1.81      1.83      0.01         0.01
  WS02006245WS02006243        1.81      1.81      1.81      0.44         0.61
  WS02006247WS02006245        1.81      1.81      1.81      2.09         1.80
  WS02006248WS02006247        1.80      1.80      1.81      0.01         0.01
  WS02006249WS02006248        1.80      1.80      1.80      2.07         0.01
  WS02006251WS02006249        1.80      1.80      1.80      1.95         1.79
  WS02006252WS02006251        1.97      1.97      1.97      1.97         0.01
  WS02006256WS02006235        2.61      2.62      3.74      1.90         0.01
  YS02001580YS02001583        0.75      0.75      0.81      0.01         0.01
  YS02001583YS02001586        0.76      0.76      0.90      0.01         0.01
  YS02001586YS02001590        0.91      0.91      0.99      0.01         0.01
  YS02001590YS02001593        0.99      0.99      1.01      1.02         0.01
  YS02001593YS02001596        1.00      1.00      1.12      0.01         0.01
  YS02001596YS02001600        1.18      1.18      1.27      0.01         0.01
  YS02001600YS02001601        1.32      1.32      1.58      0.01         0.01
  YS02001601YS02001602        1.48      1.48      1.62      1.26         0.01
  YS02001602YS02001605        1.43      1.43      1.48      2.41         0.01
  YS02001605YS02001607        1.39      1.43      1.40      1.52         1.38
  YS02001607YS02001610        0.99      0.99      1.02      0.01         0.01
  YS02001610YS02001613        0.99      0.99      1.02      0.01         0.01
  YS02001613YS02001616        0.94      0.94      0.99      0.01         0.01
  YS02001616YS02001619        0.93      0.93      0.94      0.07         0.09
  YS02001619YS02001622        0.92      0.93      0.93      0.95         0.85
  YS02001622YS02001625        0.93      0.93      1.12      0.01         0.01
  YS02001625YS02001629        0.87      0.87      1.12      0.01         0.01
  YS02001629YS02163301        1.12      1.12      1.13      0.07         0.11
  YS02001633YS02163601        1.15      1.15      1.19      0.24         0.24
  YS02001641YS02001644        1.08      1.10      1.08      1.66         1.07
  YS02001644YS02001647        0.86      0.86      1.08      0.01         0.01
  YS02001647YS02001649        0.86      0.86      1.00      0.01         0.01
  YS02001649YS02001757        1.00      1.00      1.07      0.08         0.04
  YS02001652YS02001649        0.82      0.82      1.00      0.01         0.01
  YS02001655YS02001652        0.63      0.63      0.80      0.01         0.01
  YS02001658YS02001655        0.36      0.36      0.63      0.01         0.01
  YS02001661YS02001658        0.11      0.11      0.36      0.01         0.01
  YS02001664YS02001661        0.01      0.01      0.16      0.01         0.01
  YS02001745YS02001748        0.01      0.01      0.29      0.01         0.01
  YS02001748YS02001751        0.33      0.33      0.49      0.01         0.01
  YS02001751YS02001754        0.49      0.49      0.72      0.01         0.01
  YS02001754YS02001757        0.77      0.77      1.07      0.01         0.01
  YS02001757CaochengTiaoxuchi        1.07      1.07      1.59      0.39         0.39
  YS02001759YS02001757        0.99      0.99      1.07      0.01         0.01
  YS02001762YS02001759        0.96      0.96      0.99      0.01         0.02
  YS02001765YS02001762        0.91      0.91      0.96      0.01         0.01
  YS02001767YS02001765        0.88      0.88      0.91      0.01         0.02
  YS02001770YS02001767        0.87      0.87      0.88      0.62         0.53
  YS02001774YS02001770        0.84      0.84      0.94      0.01         0.01
  YS02001779YS02001774        0.70      0.70      0.94      0.01         0.01
  YS02001783YS02001784        0.62      0.64      0.62      0.82         0.62
  YS02001784YS02001785        0.50      0.62      0.50      1.09         0.50
  YS02001786YS02001788        0.01      0.50      0.01      0.94         0.01
  YS02001790YS02001791        0.01      0.01      0.01      0.60         0.01
  YS02001793JiankangQianchi        0.01      0.01      7.60      0.01         0.01
  YS02001882YS02001884        0.58      0.58      0.59      0.01         0.01
  YS02001884YS02001887        0.62      0.62      0.63      0.01         0.01
  YS02001887YS02001890        0.65      0.65      0.66      0.17         0.01
  YS02001890YS02001895        0.57      0.57      0.68      0.01         0.01
  YS02001895YS02001898        0.56      0.56      0.57      0.01         0.01
  YS02001898YS02001901        0.57      0.57      0.62      0.01         0.01
  YS02001901YS02001904        0.61      0.61      0.62      0.01         0.01
  YS02001904YS02001907        0.61      0.61      0.92      0.01         0.01
  YS02001907YS02006553        1.10      1.10      1.18      0.01         0.01
  YS02001910YS02001907        0.68      0.68      0.90      0.04         0.04
  YS02001915YS02001910        0.58      0.58      0.68      0.01         0.01
  YS02001918YS02001915        0.49      0.49      0.58      0.01         0.01
  YS02001920YS02001918        0.49      0.49      0.50      0.01         0.01
  YS02001923YS02001920        0.44      0.44      0.50      0.01         0.01
  YS02001926YS02001923        0.18      0.18      0.22      0.01         0.01
  YS02001929YS02001926        0.06      0.06      0.22      0.01         0.01
  YS02006553YS02006556        0.79      0.79      0.92      0.01         0.01
  YS02006556YS02006558        0.85      0.85      0.94      0.01         0.01
  YS02006558YS02006561        0.52      0.77      0.52      1.03         0.52
  YS02006561YS02001783        0.45      0.45      0.64      0.01         0.01
  YS02163301YS02001633        1.13      1.13      1.17      0.01         0.01
  YS02163601YS02164001        1.10      1.10      1.19      0.09         0.01
  YS02164001YS02001641        1.10      1.10      1.10      0.70         0.64
  
  
  ***************
  Pumping Summary
  ***************
  
  ---------------------------------------------------------------------------------------------------------
                                                  Min       Avg       Max     Total     Power    % Time Off
                        Percent   Number of      Flow      Flow      Flow    Volume     Usage    Pump Curve
  Pump                 Utilized   Start-Ups       LPS       LPS       LPS  10^6 ltr     Kw-hr    Low   High
  ---------------------------------------------------------------------------------------------------------
  CC-R1                   23.65           2      0.00    683.00    683.00     4.603     86.74    0.0   20.6
  CC-R2                   22.48           2      0.00    683.00    683.00     4.375     82.52    0.0   21.6
  CC-S1                   26.54           2      0.00    200.00    200.00     1.513      8.23    0.0    0.0
  CC-S2                   24.89           2      0.00    200.00    200.00     1.419      7.66    0.0    0.0
  JK-R1                    8.78           5      0.00   1000.00   1000.00     2.503     23.26    0.0    0.0
  JK-R2                    0.17           1      0.00   1000.00   1000.00     0.047      0.36    0.0    0.0
  JK-S                    24.02           3      0.00    300.00    300.00     2.054     31.66    0.0    0.0
  

  Analysis begun on:  Thu Jan 16 14:25:11 2025
  Analysis ended on:  Thu Jan 16 14:25:12 2025
  Total elapsed time: 00:00:01