
  EPA STORM WATER MANAGEMENT MODEL - VERSION 5.2 (Build 5.2.4)
  PYSWMM TOOLKIT API - VERSION v1.0 (2023-11-27)
  ------------------------------------------------------------

  WARNING 04: minimum elevation drop used for Conduit WS02004404WS02004405
  WARNING 03: negative offset ignored for Link YS02001904YS02001907
  
  ****************
  Analysis Options
  ****************
  Flow Units ............... LPS
  Process Models:
    Rainfall/Runoff ........ YES
    RDII ................... NO
    Snowmelt ............... NO
    Groundwater ............ NO
    Flow Routing ........... YES
    Ponding Allowed ........ NO
    Water Quality .......... NO
  Infiltration Method ...... HORTON
  Flow Routing Method ...... DYNWAVE
  Surcharge Method ......... EXTRAN
  Starting Date ............ 08/28/2015 08:00:00
  Ending Date .............. 08/28/2015 16:00:00
  Antecedent Dry Days ...... 8.0
  Report Time Step ......... 00:01:00
  Wet Time Step ............ 00:01:00
  Dry Time Step ............ 00:01:00
  Routing Time Step ........ 30.00 sec
  Variable Time Step ....... YES
  Maximum Trials ........... 8
  Number of Threads ........ 4
  Head Tolerance ........... 0.001500 m
  
  
  **************************        Volume         Depth
  Runoff Quantity Continuity     hectare-m            mm
  **************************     ---------       -------
  Total Precipitation ......         2.069        62.383
  Evaporation Loss .........         0.000         0.000
  Infiltration Loss ........         0.102         3.064
  Surface Runoff ...........         1.935        58.333
  Final Storage ............         0.033         0.998
  Continuity Error (%) .....        -0.019
  
  
  **************************        Volume        Volume
  Flow Routing Continuity        hectare-m      10^6 ltr
  **************************     ---------     ---------
  Dry Weather Inflow .......         0.025         0.248
  Wet Weather Inflow .......         1.935        19.348
  Groundwater Inflow .......         0.000         0.000
  RDII Inflow ..............         0.000         0.000
  External Inflow ..........         0.083         0.825
  External Outflow .........         1.454        14.543
  Flooding Loss ............         0.612         6.117
  Evaporation Loss .........         0.000         0.000
  Exfiltration Loss ........         0.000         0.000
  Initial Stored Volume ....         0.243         2.431
  Final Stored Volume ......         0.223         2.227
  Continuity Error (%) .....        -0.151
  
  
  *************************
  Highest Continuity Errors
  *************************
  Node YS02001884 (5.00%)
  Node YS02001583 (-4.76%)
  
  
  ***************************
  Time-Step Critical Elements
  ***************************
  Link WS02004404WS02004405 (30.28%)
  Link YS02001791YS02001793 (15.56%)
  Link WS02006238WS02006235 (13.89%)
  Link WS02003066WSF200 (10.32%)
  Link WS02006252WS02006251 (9.31%)
  
  
  ********************************
  Highest Flow Instability Indexes
  ********************************
  Link WS02006113WS02006111 (31)
  Link WS02006238WS02006235 (28)
  Link WS02006111WS02006112 (23)
  Link WS02006110WS02006113 (18)
  Link WS02006235WS02006234 (18)
  
  
  *********************************
  Most Frequent Nonconverging Nodes
  *********************************
  Node CC-1 (8.41%)
  Node CC-2 (8.41%)
  Node JK-1 (8.41%)
  Node JK-2 (8.41%)
  Node WSC (8.41%)
  
  
  *************************
  Routing Time Step Summary
  *************************
  Minimum Time Step           :     0.02 sec
  Average Time Step           :     3.30 sec
  Maximum Time Step           :     6.43 sec
  % of Time in Steady State   :     0.00
  Average Iterations per Step :     2.99
  % of Steps Not Converging   :     8.41
  Time Step Frequencies       :
     30.000 - 13.228 sec      :     0.00 %
     13.228 -  5.833 sec      :    21.27 %
      5.833 -  2.572 sec      :    32.27 %
      2.572 -  1.134 sec      :    31.36 %
      1.134 -  0.500 sec      :    15.10 %
  
  
  ***************************
  Subcatchment Runoff Summary
  ***************************
  
  ------------------------------------------------------------------------------------------------------------------------------
                            Total      Total      Total      Total     Imperv       Perv      Total       Total     Peak  Runoff
                           Precip      Runon       Evap      Infil     Runoff     Runoff     Runoff      Runoff   Runoff   Coeff
  Subcatchment                 mm         mm         mm         mm         mm         mm         mm    10^6 ltr      LPS
  ------------------------------------------------------------------------------------------------------------------------------
  sub60                     62.38       0.00       0.00       1.82      53.69       5.67      59.36        0.78   526.81   0.952
  sub61                     62.38       0.00       0.00       2.64      50.65       7.97      58.61        1.08   732.74   0.940
  sub62                     62.38       0.00       0.00       1.21      56.10       3.78      59.89        1.64  1035.10   0.960
  sub63                     62.38       0.00       0.00       4.92      43.32      13.17      56.50        1.28   838.40   0.906
  sub64                     62.38       0.00       0.00       2.48      51.82       6.88      58.69        1.41   851.49   0.941
  sub65                     62.38       0.00       0.00       2.15      53.02       5.96      58.98        1.62   951.87   0.945
  sub66                     62.38       0.00       0.00       6.13      43.21      11.96      55.17        2.57  1290.88   0.884
  sub67                     62.38       0.00       0.00       1.16      56.15       3.83      59.98        1.12   782.80   0.961
  sub68                     62.38       0.00       0.00       2.19      52.46       6.55      59.01        1.62  1061.45   0.946
  sub69                     62.38       0.00       0.00       1.98      52.91       7.38      60.29        2.23  1265.00   0.966
  sub70                     62.38       0.00       0.00       6.63      41.00      14.58      55.58        1.61   725.81   0.891
  sub71                     62.38       0.00       0.00       1.25      56.06       3.75      59.81        1.56   918.33   0.959
  sub72                     62.38       0.00       0.00       1.11      56.61       3.26      59.86        0.82   450.60   0.960
  
  
  ******************
  Node Depth Summary
  ******************
  
  ---------------------------------------------------------------------------------
                                 Average  Maximum  Maximum  Time of Max    Reported
                                   Depth    Depth      HGL   Occurrence   Max Depth
  Node                 Type       Meters   Meters   Meters  days hr:min      Meters
  ---------------------------------------------------------------------------------
  WS02003060           JUNCTION     0.20     0.38     5.32     0  03:07        0.38
  WS02003066           JUNCTION     0.17     0.30     5.85     0  03:06        0.30
  WS02003067           JUNCTION     0.45     0.70     6.02     0  03:06        0.70
  WS02003069           JUNCTION     0.22     0.43     5.01     0  03:07        0.43
  WS02003072           JUNCTION     0.28     0.50     4.87     0  03:08        0.50
  WS02003073           JUNCTION     0.16     0.30     4.36     0  03:08        0.30
  WS02004401           JUNCTION     0.54     0.85     6.85     0  03:03        0.85
  WS02004402           JUNCTION     0.57     0.88     6.84     0  03:03        0.88
  WS02004403           JUNCTION     0.60     0.89     6.82     0  03:07        0.89
  WS02004404           JUNCTION     0.67     0.96     6.81     0  03:04        0.96
  WS02004405           JUNCTION     0.67     0.96     6.81     0  03:04        0.96
  WS02004406           JUNCTION     0.68     0.96     6.79     0  03:04        0.96
  WS02004407           JUNCTION     0.15     0.30     6.61     0  03:04        0.30
  WS02004409           JUNCTION     0.33     0.67     6.44     0  03:04        0.67
  WS02004410           JUNCTION     0.36     0.68     6.40     0  03:05        0.68
  WS02004411           JUNCTION     0.38     0.69     6.37     0  03:05        0.69
  WS02004412           JUNCTION     0.40     0.70     6.34     0  03:05        0.70
  WS02004413           JUNCTION     0.56     0.86     6.33     0  03:06        0.86
  WS02006109           JUNCTION     0.62     1.02     7.64     0  02:09        1.00
  WS02006110           JUNCTION     0.62     0.99     7.57     0  02:09        0.94
  WS02006111           JUNCTION     0.16     0.29     6.99     0  02:57        0.29
  WS02006112           JUNCTION     0.70     1.07     6.95     0  02:44        1.06
  WS02006113           JUNCTION     0.24     0.46     7.35     0  03:06        0.46
  WS02006115           JUNCTION     0.43     0.75     6.89     0  03:03        0.75
  WS02006116           JUNCTION     0.51     0.83     6.87     0  03:03        0.83
  WS02006228           JUNCTION     0.61     1.06     7.71     0  02:09        1.04
  WS02006229           JUNCTION     0.59     1.06     7.75     0  02:09        1.04
  WS02006230           JUNCTION     0.59     1.17     7.92     0  02:09        1.13
  WS02006231           JUNCTION     0.40     0.91     8.04     0  02:09        0.87
  WS02006232           JUNCTION     0.53     1.11     8.15     0  02:09        1.09
  WS02006234           JUNCTION     0.46     1.16     8.32     0  02:08        1.12
  WS02006235           JUNCTION     0.51     1.28     8.44     0  02:08        1.20
  WS02006238           JUNCTION     0.53     1.41     8.55     0  02:08        1.23
  WS02006239           JUNCTION     0.50     1.51     8.72     0  02:08        1.24
  WS02006240           JUNCTION     0.47     1.63     8.92     0  02:08        1.24
  WS02006242           JUNCTION     0.52     1.33     8.60     0  03:06        1.33
  WS02006243           JUNCTION     0.44     1.48     8.90     0  02:08        1.23
  WS02006245           JUNCTION     0.43     1.19     8.68     0  03:06        1.19
  WS02006247           JUNCTION     0.44     1.18     8.68     0  03:06        1.18
  WS02006248           JUNCTION     0.41     1.10     8.68     0  03:06        1.10
  WS02006249           JUNCTION     0.43     1.09     8.69     0  02:08        1.09
  WS02006251           JUNCTION     0.43     1.69     9.36     0  02:09        1.12
  WS02006252           JUNCTION     0.28     1.50     9.74     0  00:00        0.68
  WS02006256           JUNCTION     1.24     2.35     9.28     0  00:00        2.35
  WSF200               JUNCTION     0.14     0.29     5.52     0  03:06        0.29
  YS02001580           JUNCTION     0.12     1.05     9.59     0  02:12        0.77
  YS02001583           JUNCTION     0.15     0.98     9.47     0  02:12        0.82
  YS02001586           JUNCTION     0.25     1.13     9.30     0  02:12        1.13
  YS02001590           JUNCTION     0.36     1.40     9.26     0  02:12        1.37
  YS02001593           JUNCTION     0.29     1.33     9.19     0  02:12        1.28
  YS02001596           JUNCTION     0.41     1.69     9.10     0  02:12        1.65
  YS02001600           JUNCTION     0.51     1.87     9.00     0  02:12        1.85
  YS02001601           JUNCTION     0.71     2.06     8.90     0  02:11        2.06
  YS02001602           JUNCTION     0.61     1.87     8.77     0  02:14        1.87
  YS02001605           JUNCTION     0.56     1.78     8.68     0  02:31        1.78
  YS02001607           JUNCTION     0.53     1.65     8.49     0  02:32        1.64
  YS02001610           JUNCTION     0.57     1.68     8.48     0  02:15        1.68
  YS02001613           JUNCTION     0.53     1.66     8.50     0  02:23        1.65
  YS02001616           JUNCTION     0.46     1.60     8.51     0  02:25        1.60
  YS02001619           JUNCTION     0.44     1.60     8.52     0  02:25        1.60
  YS02001622           JUNCTION     0.43     1.57     8.47     0  02:25        1.57
  YS02001625           JUNCTION     0.68     1.78     8.38     0  02:15        1.78
  YS02001629           JUNCTION     0.58     1.85     8.40     0  02:16        1.85
  YS02001633           JUNCTION     0.65     2.00     8.45     0  02:18        1.98
  YS02001641           JUNCTION     0.62     1.95     8.39     0  02:18        1.95
  YS02001644           JUNCTION     0.62     1.92     8.35     0  02:18        1.92
  YS02001647           JUNCTION     0.40     1.77     8.38     0  02:23        1.74
  YS02001649           JUNCTION     0.46     2.00     8.39     0  02:23        1.95
  YS02001652           JUNCTION     0.33     1.88     8.48     0  02:23        1.79
  YS02001655           JUNCTION     0.25     1.70     8.55     0  02:23        1.57
  YS02001658           JUNCTION     0.18     1.55     8.69     0  02:17        1.34
  YS02001661           JUNCTION     0.19     1.37     8.77     0  02:23        1.10
  YS02001664           JUNCTION     0.08     0.54     8.46     0  02:24        0.53
  YS02001745           JUNCTION     0.10     0.82     8.34     0  02:24        0.81
  YS02001748           JUNCTION     0.18     1.36     8.43     0  02:19        1.25
  YS02001751           JUNCTION     0.22     1.44     8.32     0  02:24        1.43
  YS02001754           JUNCTION     0.29     1.70     8.31     0  02:24        1.68
  YS02001757           JUNCTION     0.47     2.03     8.29     0  02:23        2.01
  YS02001759           JUNCTION     0.41     2.01     8.37     0  02:24        1.98
  YS02001762           JUNCTION     0.40     1.99     8.39     0  02:23        1.96
  YS02001765           JUNCTION     0.38     1.95     8.40     0  02:23        1.92
  YS02001767           JUNCTION     0.38     1.92     8.41     0  02:23        1.91
  YS02001770           JUNCTION     0.39     1.93     8.42     0  02:23        1.93
  YS02001774           JUNCTION     0.45     1.98     8.40     0  02:23        1.98
  YS02001779           JUNCTION     0.28     1.68     8.37     0  02:15        1.68
  YS02001783           JUNCTION     0.31     1.24     7.38     0  02:17        1.23
  YS02001784           JUNCTION     0.32     1.12     7.19     0  02:23        1.12
  YS02001786           JUNCTION     0.27     0.88     6.91     0  02:17        0.87
  YS02001788           JUNCTION     0.20     0.62     6.60     0  02:24        0.62
  YS02001790           JUNCTION     0.23     0.73     6.37     0  02:24        0.71
  YS02001791           JUNCTION     0.15     0.44     5.91     0  02:24        0.43
  YS02001793           JUNCTION     0.08     0.30     5.14     0  02:25        0.28
  YS02001882           JUNCTION     0.38     1.64     8.36     0  02:24        1.64
  YS02001884           JUNCTION     0.47     1.75     8.36     0  02:23        1.74
  YS02001887           JUNCTION     0.54     1.82     8.36     0  02:23        1.82
  YS02001890           JUNCTION     0.57     1.81     8.32     0  02:17        1.81
  YS02001895           JUNCTION     0.35     1.57     8.31     0  02:20        1.56
  YS02001898           JUNCTION     0.36     1.57     8.31     0  02:17        1.56
  YS02001901           JUNCTION     0.46     1.68     8.29     0  02:21        1.67
  YS02001904           JUNCTION     0.45     1.64     8.27     0  02:17        1.63
  YS02001907           JUNCTION     0.75     1.96     8.25     0  02:17        1.96
  YS02001910           JUNCTION     0.56     1.97     8.48     0  02:18        1.88
  YS02001915           JUNCTION     0.38     1.93     8.64     0  02:18        1.78
  YS02001918           JUNCTION     0.21     1.81     8.88     0  02:18        1.45
  YS02001920           JUNCTION     0.29     2.01     9.02     0  02:18        1.52
  YS02001923           JUNCTION     0.16     1.87     9.13     0  02:18        1.27
  YS02001926           JUNCTION     0.20     1.73     9.17     0  02:18        1.10
  YS02001929           JUNCTION     0.11     1.78     9.47     0  02:18        0.86
  YS02006553           JUNCTION     0.76     1.98     8.26     0  02:23        1.97
  YS02006556           JUNCTION     0.73     1.96     8.27     0  02:23        1.95
  YS02006558           JUNCTION     0.77     2.00     8.27     0  02:23        2.00
  YS02006561           JUNCTION     0.19     0.92     7.58     0  02:17        0.89
  YS02163301           JUNCTION     0.60     1.91     8.43     0  02:18        1.90
  YS02163601           JUNCTION     0.68     2.03     8.43     0  02:18        2.02
  YS02164001           JUNCTION     0.61     1.95     8.41     0  02:18        1.95
  CC-1                 OUTFALL      0.00     0.00     0.00     0  00:00        0.00
  CC-2                 OUTFALL      0.00     0.00     0.00     0  00:00        0.00
  JK-1                 OUTFALL      0.00     0.00     0.00     0  00:00        0.00
  JK-2                 OUTFALL      0.00     0.00     0.00     0  00:00        0.00
  WSC                  OUTFALL      0.16     0.30     0.97     0  03:09        0.30
  CC-storage           STORAGE      0.90     1.78     7.28     0  02:45        1.78
  JK-storage           STORAGE      2.18     4.24     5.04     0  02:24        4.17
  
  
  *******************
  Node Inflow Summary
  *******************
  
  -------------------------------------------------------------------------------------------------
                                  Maximum  Maximum                  Lateral       Total        Flow
                                  Lateral    Total  Time of Max      Inflow      Inflow     Balance
                                   Inflow   Inflow   Occurrence      Volume      Volume       Error
  Node                 Type           LPS      LPS  days hr:min    10^6 ltr    10^6 ltr     Percent
  -------------------------------------------------------------------------------------------------
  WS02003060           JUNCTION     16.53   553.68     0  03:06       0.471        4.29       0.046
  WS02003066           JUNCTION      0.00   536.97     0  03:06           0        3.82       0.032
  WS02003067           JUNCTION      0.00   536.92     0  03:06           0        3.82       0.104
  WS02003069           JUNCTION      0.32   553.87     0  03:07     0.00912        4.29       0.080
  WS02003072           JUNCTION      0.00   553.66     0  03:07           0        4.29       0.146
  WS02003073           JUNCTION      1.82   555.38     0  03:08      0.0519        4.34       0.113
  WS02004401           JUNCTION      0.00   538.71     0  03:03           0        3.92       0.254
  WS02004402           JUNCTION      0.00   538.55     0  03:03           0        3.91       0.257
  WS02004403           JUNCTION      0.00   538.11     0  03:03           0         3.9       0.253
  WS02004404           JUNCTION      0.16   538.13     0  03:03     0.00462        3.89       0.223
  WS02004405           JUNCTION      0.04   537.96     0  03:04     0.00109        3.88       0.301
  WS02004406           JUNCTION      0.00   538.06     0  03:04           0        3.87       0.531
  WS02004407           JUNCTION      0.00   537.67     0  03:04           0        3.85       0.022
  WS02004409           JUNCTION      0.00   537.46     0  03:04           0        3.85       0.055
  WS02004410           JUNCTION      0.00   537.35     0  03:04           0        3.85       0.101
  WS02004411           JUNCTION      0.00   537.16     0  03:05           0        3.85       0.132
  WS02004412           JUNCTION      0.00   537.11     0  03:05           0        3.84       0.180
  WS02004413           JUNCTION      0.00   537.08     0  03:05           0        3.83       0.332
  WS02006109           JUNCTION      1.23   542.89     0  02:10      0.0351        3.97       0.244
  WS02006110           JUNCTION      0.00   543.48     0  02:10           0        3.96       0.160
  WS02006111           JUNCTION      0.00   561.68     0  03:10           0        3.95       0.014
  WS02006112           JUNCTION      0.00   542.74     0  02:23           0        3.95       0.505
  WS02006113           JUNCTION      0.00   555.84     0  02:10           0        3.95       0.043
  WS02006115           JUNCTION      0.00   548.84     0  02:44           0        3.93       0.161
  WS02006116           JUNCTION      0.00   540.33     0  03:03           0        3.92       0.104
  WS02006228           JUNCTION      0.00   541.37     0  02:10           0        3.93       0.107
  WS02006229           JUNCTION      0.00   540.96     0  02:10           0        3.94       0.136
  WS02006230           JUNCTION     10.28   545.01     0  02:09       0.293        3.95       0.152
  WS02006231           JUNCTION      0.00   530.34     0  02:09           0        3.65      -0.096
  WS02006232           JUNCTION      0.00   530.62     0  02:09           0        3.66       0.245
  WS02006234           JUNCTION      0.00   531.28     0  02:09           0        3.65      -0.194
  WS02006235           JUNCTION      0.00   532.53     0  02:09           0        3.75       0.222
  WS02006238           JUNCTION      0.00   421.73     0  03:20           0        2.55      -0.131
  WS02006239           JUNCTION      0.00   419.98     0  03:20           0        2.51      -0.078
  WS02006240           JUNCTION      0.00   417.36     0  03:20           0        2.47      -0.063
  WS02006242           JUNCTION      0.00   417.06     0  03:20           0        2.43      -0.045
  WS02006243           JUNCTION      0.00   417.62     0  03:20           0         2.4      -0.039
  WS02006245           JUNCTION      0.00   416.81     0  03:20           0         2.4       0.289
  WS02006247           JUNCTION      0.00   416.25     0  03:20           0        2.39      -0.033
  WS02006248           JUNCTION      0.00   417.34     0  03:20           0        2.39       0.041
  WS02006249           JUNCTION      0.00   459.02     0  00:00           0         2.7       0.180
  WS02006251           JUNCTION      0.08   405.82     0  02:09     0.00219        2.69      -0.017
  WS02006252           JUNCTION      0.00   400.00     0  00:00           0        2.69      -0.022
  WS02006256           JUNCTION      0.00   300.00     0  00:00           0         1.8      -0.155
  WSF200               JUNCTION      0.00   537.01     0  03:06           0        3.82       0.008
  YS02001580           JUNCTION      0.00    68.94     0  02:11           0     0.00415       2.371
  YS02001583           JUNCTION      0.00   119.18     0  02:11           0      0.0155      -4.548
  YS02001586           JUNCTION    725.81   725.81     0  02:26        1.61        1.62       0.056
  YS02001590           JUNCTION      0.00   318.03     0  02:28           0         1.3      -0.028
  YS02001593           JUNCTION      0.00   318.03     0  02:28           0         1.3      -0.002
  YS02001596           JUNCTION      0.00   318.05     0  02:33           0         1.3      -0.016
  YS02001600           JUNCTION      0.00   318.22     0  02:18           0         1.3       0.016
  YS02001601           JUNCTION   1265.00  1582.56     0  02:26        2.23        3.53       0.024
  YS02001602           JUNCTION      0.00   492.80     0  02:11           0        2.25       0.020
  YS02001605           JUNCTION      0.00   493.01     0  02:11           0        2.14       0.030
  YS02001607           JUNCTION      0.00   493.15     0  02:11           0        2.14       0.092
  YS02001610           JUNCTION      0.00   699.54     0  02:26           0        2.31       0.099
  YS02001613           JUNCTION      0.00   495.00     0  02:10           0        1.88       0.085
  YS02001616           JUNCTION      0.00   493.08     0  02:10           0        1.88       0.017
  YS02001619           JUNCTION   1290.88  1290.88     0  02:26        2.57        4.27      -0.003
  YS02001622           JUNCTION      0.00   940.98     0  02:25           0        4.09      -0.001
  YS02001625           JUNCTION      0.00  1340.64     0  02:26           0         4.3       0.220
  YS02001629           JUNCTION      0.00   901.88     0  02:14           0        3.31       0.010
  YS02001633           JUNCTION    952.07  1267.62     0  02:14        1.63        4.72       0.072
  YS02001641           JUNCTION      0.00  1262.88     0  02:14           0        4.51       0.057
  YS02001644           JUNCTION    851.53  1606.43     0  02:15        1.41        5.91       0.055
  YS02001647           JUNCTION      0.00  1605.51     0  02:15           0         5.5       0.005
  YS02001649           JUNCTION      0.00  1769.67     0  02:16           0        6.79       0.001
  YS02001652           JUNCTION      0.00   858.56     0  02:25           0        1.29      -0.077
  YS02001655           JUNCTION      0.15   858.14     0  02:25     0.00439        1.29       0.014
  YS02001658           JUNCTION      0.00   857.73     0  02:25           0        1.28      -0.052
  YS02001661           JUNCTION      0.00   890.88     0  02:22           0        1.28      -0.026
  YS02001664           JUNCTION    838.40   838.40     0  02:25        1.28        1.28      -0.005
  YS02001745           JUNCTION    526.81   526.81     0  02:25        0.78        0.78       0.155
  YS02001748           JUNCTION      0.04   530.44     0  02:25     0.00128        0.78      -0.264
  YS02001751           JUNCTION      0.01   531.15     0  02:25    0.000313       0.787       0.078
  YS02001754           JUNCTION      0.26   532.02     0  02:25     0.00741       0.801      -0.182
  YS02001757           JUNCTION      0.00  2994.02     0  02:23           0        10.1       0.006
  YS02001759           JUNCTION    732.78  1242.92     0  02:24        1.08        2.56      -0.016
  YS02001762           JUNCTION      0.00   681.66     0  02:21           0        1.48      -0.004
  YS02001765           JUNCTION      0.00   680.64     0  02:21           0        1.48       0.003
  YS02001767           JUNCTION      0.54   681.41     0  02:21      0.0152        1.48       0.008
  YS02001770           JUNCTION   1035.25  1035.25     0  02:25        1.65        1.69      -0.011
  YS02001774           JUNCTION      0.00   540.55     0  02:25           0       0.238       0.500
  YS02001779           JUNCTION      0.01   540.75     0  02:25    0.000142       0.195      -0.215
  YS02001783           JUNCTION      0.00  1163.75     0  02:23           0        3.99       0.005
  YS02001784           JUNCTION      1.06  1165.00     0  02:23      0.0302        4.02       0.012
  YS02001786           JUNCTION      0.06  1164.58     0  02:23      0.0016        4.02       0.016
  YS02001788           JUNCTION      0.07  1164.53     0  02:23     0.00202        4.02       0.008
  YS02001790           JUNCTION      0.15  1174.86     0  02:26     0.00442        4.03       0.030
  YS02001791           JUNCTION      0.00  1294.58     0  02:24           0        4.02      -0.032
  YS02001793           JUNCTION      0.00  1257.66     0  02:25           0        4.03       0.005
  YS02001882           JUNCTION      0.00    34.11     0  02:14           0      0.0128       4.610
  YS02001884           JUNCTION      0.00    41.56     0  02:13           0      0.0486       5.266
  YS02001887           JUNCTION    783.25   783.29     0  02:25        1.13        1.16       0.384
  YS02001890           JUNCTION      0.00   783.46     0  02:25           0        1.12       0.451
  YS02001895           JUNCTION      0.00   517.16     0  02:27           0        1.04       0.147
  YS02001898           JUNCTION      0.00   517.41     0  02:28           0        1.04       0.023
  YS02001901           JUNCTION      0.00   517.33     0  02:28           0        1.05       0.309
  YS02001904           JUNCTION      0.00   517.45     0  02:28           0        1.05       0.264
  YS02001907           JUNCTION      0.00  1897.68     0  02:25           0        3.51       0.508
  YS02001910           JUNCTION      0.00  1381.34     0  02:25           0        2.47       0.288
  YS02001915           JUNCTION    918.34  1381.64     0  02:25        1.56         2.5       0.052
  YS02001918           JUNCTION      0.00   462.78     0  02:25           0       0.949       0.006
  YS02001920           JUNCTION      2.87   462.86     0  02:25      0.0818       0.937       0.091
  YS02001923           JUNCTION      0.04   460.58     0  02:25     0.00107       0.843      -0.055
  YS02001926           JUNCTION      0.05   460.10     0  02:25     0.00149        0.83      -0.012
  YS02001929           JUNCTION    450.60   450.60     0  02:26       0.823       0.824      -0.053
  YS02006553           JUNCTION      0.00   804.58     0  02:38           0        2.39       0.497
  YS02006556           JUNCTION      0.00   804.38     0  02:38           0        2.39       0.335
  YS02006558           JUNCTION   1062.33  1164.49     0  02:24        1.65        4.02       0.082
  YS02006561           JUNCTION      0.00  1163.35     0  02:23           0        3.99      -0.003
  YS02163301           JUNCTION      0.00   900.97     0  02:14           0        3.31       0.042
  YS02163601           JUNCTION      0.11  1266.92     0  02:14     0.00313        4.51       0.108
  YS02164001           JUNCTION      0.00  1265.98     0  02:14           0         4.5       0.046
  CC-1                 OUTFALL       0.00   683.00     0  00:00           0        4.12       0.000
  CC-2                 OUTFALL       0.00   683.00     0  00:00           0        3.84       0.000
  JK-1                 OUTFALL       0.00  1000.00     0  00:00           0        2.21       0.000
  JK-2                 OUTFALL       0.00  1000.00     0  00:00           0      0.0484       0.000
  WSC                  OUTFALL       0.00   555.28     0  03:09           0        4.33       0.000
  CC-storage           STORAGE       0.00  2994.55     0  02:23           0        12.4      -0.145
  JK-storage           STORAGE       0.00  1236.47     0  02:32           0        4.18      -0.097
  
  
  **********************
  Node Surcharge Summary
  **********************
  
  Surcharging occurs when water rises above the top of the highest conduit.
  ---------------------------------------------------------------------
                                               Max. Height   Min. Depth
                                   Hours       Above Crown    Below Rim
  Node                 Type      Surcharged         Meters       Meters
  ---------------------------------------------------------------------
  WS02006109           JUNCTION        1.67          0.204        1.616
  WS02006110           JUNCTION        1.16          0.077        1.773
  WS02006112           JUNCTION        1.13          0.067        1.613
  WS02006228           JUNCTION        1.66          0.231        1.969
  WS02006229           JUNCTION        1.68          0.255        2.195
  WS02006230           JUNCTION        1.16          0.092        1.478
  WS02006231           JUNCTION        1.18          0.205        1.325
  WS02006232           JUNCTION        1.72          0.408        1.072
  WS02006234           JUNCTION        1.23          0.442        0.798
  WS02006235           JUNCTION        1.68          0.571        0.719
  WS02006238           JUNCTION        1.70          0.686        0.744
  WS02006239           JUNCTION        1.64          0.766        0.524
  WS02006240           JUNCTION        1.63          0.920        0.470
  WS02006242           JUNCTION        1.65          0.600        0.220
  WS02006243           JUNCTION        1.63          0.770        0.000
  WS02006245           JUNCTION        1.63          0.482        0.368
  WS02006247           JUNCTION        1.63          0.473        0.287
  WS02006248           JUNCTION        1.63          0.377        0.003
  WS02006249           JUNCTION        1.62          0.390        0.000
  WS02006251           JUNCTION        1.19          0.664        0.516
  WS02006252           JUNCTION        1.79          1.100        0.000
  WS02006256           JUNCTION        3.62          2.050        0.000
  YS02001580           JUNCTION        0.58          0.450        0.000
  YS02001583           JUNCTION        0.59          0.337        0.163
  YS02001586           JUNCTION        0.72          0.510        0.000
  YS02001590           JUNCTION        0.80          0.750        0.000
  YS02001593           JUNCTION        0.80          0.708        0.132
  YS02001596           JUNCTION        0.93          0.955        0.115
  YS02001600           JUNCTION        1.07          1.190        0.000
  YS02001601           JUNCTION        1.41          1.440        0.000
  YS02001602           JUNCTION        1.30          1.270        0.000
  YS02001605           JUNCTION        1.25          1.176        0.004
  YS02001607           JUNCTION        0.79          0.646        0.034
  YS02001610           JUNCTION        0.82          0.680        0.000
  YS02001613           JUNCTION        0.79          0.660        0.040
  YS02001616           JUNCTION        0.75          0.600        0.010
  YS02001619           JUNCTION        0.73          0.595        0.015
  YS02001622           JUNCTION        0.73          0.568        0.052
  YS02001625           JUNCTION        0.91          0.780        0.000
  YS02001629           JUNCTION        0.68          0.470        0.000
  YS02001633           JUNCTION        0.94          0.978        0.082
  YS02001641           JUNCTION        0.89          0.953        0.147
  YS02001644           JUNCTION        0.86          0.920        0.000
  YS02001647           JUNCTION        0.65          0.765        0.135
  YS02001649           JUNCTION        0.78          1.002        0.048
  YS02001652           JUNCTION        0.60          0.850        0.280
  YS02001655           JUNCTION        0.45          0.699        0.501
  YS02001658           JUNCTION        0.26          0.550        0.750
  YS02001661           JUNCTION        0.03          0.299        1.091
  YS02001748           JUNCTION        0.19          0.276        0.914
  YS02001751           JUNCTION        0.35          0.438        0.762
  YS02001754           JUNCTION        0.52          0.651        0.499
  YS02001757           JUNCTION        0.84          1.034        0.176
  YS02001759           JUNCTION        0.76          1.008        0.202
  YS02001762           JUNCTION        0.73          0.985        0.165
  YS02001765           JUNCTION        0.69          0.946        0.154
  YS02001767           JUNCTION        0.66          0.919        0.111
  YS02001770           JUNCTION        0.63          0.899        0.021
  YS02001774           JUNCTION        0.71          0.981        0.069
  YS02001779           JUNCTION        0.51          0.680        0.000
  YS02001783           JUNCTION        0.52          0.442        1.158
  YS02001784           JUNCTION        0.50          0.324        1.166
  YS02001786           JUNCTION        0.39          0.077        1.353
  YS02001882           JUNCTION        0.47          0.644        0.186
  YS02001884           JUNCTION        0.48          0.685        0.185
  YS02001887           JUNCTION        0.51          0.771        0.179
  YS02001890           JUNCTION        0.53          0.760        0.000
  YS02001895           JUNCTION        0.46          0.566        0.184
  YS02001898           JUNCTION        0.45          0.541        0.199
  YS02001901           JUNCTION        0.50          0.678        0.192
  YS02001904           JUNCTION        0.49          0.641        0.209
  YS02001907           JUNCTION        0.78          0.950        0.000
  YS02001910           JUNCTION        0.56          0.970        0.130
  YS02001915           JUNCTION        0.46          0.925        0.075
  YS02001918           JUNCTION        0.38          0.810        0.000
  YS02001920           JUNCTION        0.39          1.011        0.129
  YS02001923           JUNCTION        0.08          0.657        0.163
  YS02001926           JUNCTION        0.12          0.727        0.173
  YS02001929           JUNCTION        0.01          0.780        0.000
  YS02006553           JUNCTION        0.79          0.980        0.210
  YS02006556           JUNCTION        0.65          0.918        0.432
  YS02006558           JUNCTION        0.64          0.902        0.498
  YS02006561           JUNCTION        0.34          0.122        1.028
  YS02163301           JUNCTION        0.92          0.909        0.121
  YS02163601           JUNCTION        0.98          1.029        0.051
  YS02164001           JUNCTION        0.89          0.949        0.151
  
  
  *********************
  Node Flooding Summary
  *********************
  
  Flooding refers to all water that overflows a node, whether it ponds or not.
  --------------------------------------------------------------------------
                                                             Total   Maximum
                                 Maximum   Time of Max       Flood    Ponded
                        Hours       Rate    Occurrence      Volume     Depth
  Node                 Flooded       LPS   days hr:min    10^6 ltr    Meters
  --------------------------------------------------------------------------
  WS02006243              0.01     53.16      0  02:08       0.000     0.000
  WS02006249              1.18    115.76      0  02:09       0.302     0.000
  WS02006252              0.01    245.63      0  00:00       0.000     0.000
  WS02006256              1.66    293.19      0  00:00       0.531     0.000
  YS02001580              0.01     42.28      0  02:12       0.000     0.000
  YS02001586              0.45    408.15      0  02:26       0.310     0.000
  YS02001590              0.01      7.35      0  02:12       0.000     0.000
  YS02001600              0.01      2.53      0  02:12       0.000     0.000
  YS02001601              0.66   1184.74      0  02:26       1.276     0.000
  YS02001602              0.55     62.02      0  02:31       0.114     0.000
  YS02001610              0.49    699.32      0  02:26       0.612     0.000
  YS02001625              0.46   1340.55      0  02:25       1.202     0.000
  YS02001629              0.07     17.11      0  02:18       0.001     0.000
  YS02001644              0.22   1035.86      0  02:25       0.400     0.000
  YS02001779              0.18    540.20      0  02:25       0.177     0.000
  YS02001890              0.16    267.39      0  02:25       0.071     0.000
  YS02001907              0.33   1800.94      0  02:25       1.120     0.000
  YS02001918              0.01     48.31      0  02:18       0.000     0.000
  YS02001929              0.01    175.13      0  02:18       0.000     0.000
  
  
  **********************
  Storage Volume Summary
  **********************
  
  ------------------------------------------------------------------------------------------------
                         Average    Avg   Evap  Exfil     Maximum    Max    Time of Max    Maximum
                          Volume   Pcnt   Pcnt   Pcnt      Volume   Pcnt     Occurrence    Outflow
  Storage Unit           1000 m³   Full   Loss   Loss     1000 m³   Full    days hr:min        LPS
  ------------------------------------------------------------------------------------------------
  CC-storage               2.502   39.0    0.0    0.0       4.962   77.4       0  02:45    1783.53
  JK-storage               0.109   37.5    0.0    0.0       0.213   73.1       0  02:24    2300.00
  
  
  ***********************
  Outfall Loading Summary
  ***********************
  
  -----------------------------------------------------------
                         Flow       Avg       Max       Total
                         Freq      Flow      Flow      Volume
  Outfall Node           Pcnt       LPS       LPS    10^6 ltr
  -----------------------------------------------------------
  CC-1                  33.73    683.00    683.00       4.116
  CC-2                  31.16    683.00    683.00       3.842
  JK-1                  16.08   1000.00   1000.00       2.206
  JK-2                   0.24   1000.00   1000.00       0.048
  WSC                   99.93    212.24    555.28       4.331
  -----------------------------------------------------------
  System                36.23   3578.24   3366.23      14.542
  
  
  ********************
  Link Flow Summary
  ********************
  
  -----------------------------------------------------------------------------
                                 Maximum  Time of Max   Maximum    Max/    Max/
                                  |Flow|   Occurrence   |Veloc|    Full    Full
  Link                 Type          LPS  days hr:min     m/sec    Flow   Depth
  -----------------------------------------------------------------------------
  1                    CONDUIT    555.28     0  03:09      2.83    0.19    0.30
  WS02003060WS02003069 CONDUIT    553.55     0  03:07      1.64    0.22    0.34
  WS02003066WSF200     CONDUIT    537.01     0  03:06      2.85    0.09    0.22
  WS02003067WS02003066 CONDUIT    536.97     0  03:06      1.21    0.17    0.42
  WS02003069WS02003072 CONDUIT    553.66     0  03:07      1.37    0.27    0.39
  WS02003072WS02003073 CONDUIT    553.56     0  03:08      1.44    1.20    0.37
  WS02004401WS02004402 CONDUIT    538.55     0  03:03      1.23    0.65    0.86
  WS02004402WS02004403 CONDUIT    538.11     0  03:03      1.24    0.77    0.88
  WS02004403WS02004404 CONDUIT    537.97     0  03:03      1.17    0.39    0.93
  WS02004404WS02004405 CONDUIT    537.92     0  03:04      1.43    5.27    0.96
  WS02004405WS02004406 CONDUIT    538.06     0  03:04      1.39    1.06    0.96
  WS02004406WS02004407 CONDUIT    537.67     0  03:04      1.04    0.24    0.63
  WS02004407WS02004409 CONDUIT    537.46     0  03:04      1.52    0.19    0.48
  WS02004409WS02004410 CONDUIT    537.35     0  03:04      0.99    0.69    0.67
  WS02004410WS02004411 CONDUIT    537.16     0  03:05      0.94    0.73    0.69
  WS02004411WS02004412 CONDUIT    537.11     0  03:05      0.92    0.76    0.69
  WS02004412WS02004413 CONDUIT    537.08     0  03:05      0.87    0.36    0.78
  WS02004413WS02003067 CONDUIT    536.92     0  03:06      1.11    0.23    0.59
  WS02006109WS02006110 CONDUIT    543.48     0  02:10      1.08    1.04    1.00
  WS02006110WS02006113 CONDUIT    555.84     0  02:10      1.34    0.51    0.79
  WS02006111WS02006112 CONDUIT    542.74     0  02:23      1.96    0.26    0.67
  WS02006112WS02006115 CONDUIT    548.84     0  02:44      0.78    0.32    0.87
  WS02006113WS02006111 CONDUIT    561.68     0  03:10      2.47    0.67    0.46
  WS02006115WS02006116 CONDUIT    540.33     0  03:03      1.19    0.69    0.76
  WS02006116WS02004401 CONDUIT    538.71     0  03:03      1.22    0.74    0.84
  WS02006228WS02006109 CONDUIT    541.66     0  02:10      1.08    2.37    1.00
  WS02006229WS02006228 CONDUIT    541.37     0  02:10      1.14    1.79    1.00
  WS02006230WS02006229 CONDUIT    540.96     0  02:10      1.41   12.04    1.00
  WS02006231WS02006230 CONDUIT    534.73     0  02:09      1.41    8.11    1.00
  WS02006232WS02006231 CONDUIT    530.34     0  02:09      1.38    1.11    1.00
  WS02006234WS02006232 CONDUIT    530.62     0  02:09      1.41    1.07    1.00
  WS02006235WS02006234 CONDUIT    531.28     0  02:09      1.38    5.61    1.00
  WS02006238WS02006235 CONDUIT    423.41     0  03:20      1.47    0.95    1.00
  WS02006239WS02006238 CONDUIT    421.73     0  03:20      1.10    1.35    1.00
  WS02006240WS02006239 CONDUIT    419.98     0  03:20      1.24    1.32    1.00
  WS02006242WS02006240 CONDUIT    417.36     0  03:20      1.13    1.66    1.00
  WS02006243WS02006242 CONDUIT    417.06     0  03:20      1.40    0.89    1.00
  WS02006245WS02006243 CONDUIT    417.62     0  03:20      1.45    1.24    1.00
  WS02006247WS02006245 CONDUIT    416.81     0  03:20      1.43    3.30    1.00
  WS02006248WS02006247 CONDUIT    416.25     0  03:20      1.44    0.91    1.00
  WS02006249WS02006248 CONDUIT    417.34     0  03:20      1.36    2.29    1.00
  WS02006251WS02006249 CONDUIT    459.02     0  00:00      1.99    1.32    1.00
  WS02006252WS02006251 CONDUIT    405.74     0  02:09     25.30    1.49    1.00
  WS02006256WS02006235 CONDUIT    288.91     0  00:00      4.23    3.06    1.00
  WSF200WS02003060     CONDUIT    537.15     0  03:06      2.06    0.12    0.28
  YS02001580YS02001583 CONDUIT     68.94     0  02:11      0.51    0.27    1.00
  YS02001583YS02001586 CONDUIT    119.18     0  02:11      0.50    0.18    1.00
  YS02001586YS02001590 CONDUIT    318.03     0  02:28      1.24    0.56    1.00
  YS02001590YS02001593 CONDUIT    318.03     0  02:28      1.12    2.00    1.00
  YS02001593YS02001596 CONDUIT    318.05     0  02:33      1.72    0.50    1.00
  YS02001596YS02001600 CONDUIT    318.22     0  02:18      1.26    0.62    1.00
  YS02001600YS02001601 CONDUIT    317.95     0  02:29      1.12    0.55    1.00
  YS02001601YS02001602 CONDUIT    492.80     0  02:11      1.74    1.78    1.00
  YS02001602YS02001605 CONDUIT    493.01     0  02:11      1.74   10.43    1.00
  YS02001605YS02001607 CONDUIT    493.15     0  02:11      1.74    2.70    1.00
  YS02001607YS02001610 CONDUIT    495.26     0  02:10      0.63    0.47    1.00
  YS02001610YS02001613 CONDUIT    495.00     0  02:10      0.63    0.57    1.00
  YS02001613YS02001616 CONDUIT    493.08     0  02:10      0.63    0.42    1.00
  YS02001616YS02001619 CONDUIT    491.77     0  02:11      0.66    0.85    1.00
  YS02001619YS02001622 CONDUIT    940.98     0  02:25      1.20    1.39    1.00
  YS02001622YS02001625 CONDUIT    941.74     0  02:25      1.20    0.50    1.00
  YS02001625YS02001629 CONDUIT    901.88     0  02:14      1.15    0.43    1.00
  YS02001629YS02163301 CONDUIT    900.97     0  02:14      1.15    1.11    1.00
  YS02001633YS02163601 CONDUIT   1266.81     0  02:14      1.61    1.33    1.00
  YS02001641YS02001644 CONDUIT   1262.55     0  02:15      1.61    4.08    1.00
  YS02001644YS02001647 CONDUIT   1605.51     0  02:15      2.09    0.94    1.00
  YS02001647YS02001649 CONDUIT   1604.69     0  02:15      2.24    0.85    1.00
  YS02001649YS02001757 CONDUIT   1772.97     0  02:16      2.28    1.08    1.00
  YS02001652YS02001649 CONDUIT    858.41     0  02:25      1.09    0.43    1.00
  YS02001655YS02001652 CONDUIT    858.56     0  02:25      1.25    0.42    1.00
  YS02001658YS02001655 CONDUIT    857.99     0  02:25      1.81    0.36    1.00
  YS02001661YS02001658 CONDUIT    857.73     0  02:25      2.15    0.34    1.00
  YS02001664YS02001661 CONDUIT    890.88     0  02:22      2.05    0.28    0.77
  YS02001745YS02001748 CONDUIT    530.40     0  02:25      1.99    0.20    0.91
  YS02001748YS02001751 CONDUIT    531.14     0  02:25      1.58    0.27    1.00
  YS02001751YS02001754 CONDUIT    531.76     0  02:25      1.40    0.26    1.00
  YS02001754YS02001757 CONDUIT    531.72     0  02:25      0.68    0.21    1.00
  YS02001757CaochengTiaoxuchi CONDUIT   2994.55     0  02:23      3.81    1.30    1.00
  YS02001759YS02001757 CONDUIT   1243.43     0  02:23      1.58    0.88    1.00
  YS02001762YS02001759 CONDUIT    683.87     0  02:21      0.87    0.79    1.00
  YS02001765YS02001762 CONDUIT    681.66     0  02:21      0.87    0.64    1.00
  YS02001767YS02001765 CONDUIT    680.64     0  02:21      0.87    0.86    1.00
  YS02001770YS02001767 CONDUIT    680.88     0  02:21      0.87    2.70    1.00
  YS02001774YS02001770 CONDUIT    540.55     0  02:25      0.69    0.35    1.00
  YS02001779YS02001774 CONDUIT    540.75     0  02:25      0.69    0.27    1.00
  YS02001783YS02001784 CONDUIT   1163.94     0  02:23      2.32    1.60    1.00
  YS02001784YS02001785 CONDUIT   1164.53     0  02:23      2.32    2.71    1.00
  YS02001786YS02001788 CONDUIT   1164.46     0  02:23      2.48    2.24    0.89
  YS02001788YS02001790 CONDUIT   1174.71     0  02:26      2.72    0.87    0.84
  YS02001790YS02001791 CONDUIT   1294.58     0  02:24      3.44    1.41    0.70
  YS02001791YS02001793 CONDUIT   1257.66     0  02:25      6.75    0.54    0.45
  YS02001793JiankangQianchi CONDUIT   1236.47     0  02:32      2.49    0.10    0.65
  YS02001882YS02001884 CONDUIT     34.11     0  02:14      0.12    0.04    1.00
  YS02001884YS02001887 CONDUIT     41.56     0  02:13      0.08    0.06    1.00
  YS02001887YS02001890 CONDUIT    783.46     0  02:25      1.00    1.34    1.00
  YS02001890YS02001895 CONDUIT    517.16     0  02:27      0.66    0.24    1.00
  YS02001895YS02001898 CONDUIT    517.41     0  02:28      0.66    0.90    1.00
  YS02001898YS02001901 CONDUIT    517.33     0  02:28      0.66    0.33    1.00
  YS02001901YS02001904 CONDUIT    517.45     0  02:28      0.66    0.80    1.00
  YS02001904YS02001907 CONDUIT    517.08     0  02:28      0.66    0.18    1.00
  YS02001907YS02006553 CONDUIT    804.58     0  02:38      0.89    0.95    1.00
  YS02001910YS02001907 CONDUIT   1381.81     0  02:25      1.76    0.78    1.00
  YS02001915YS02001910 CONDUIT   1381.34     0  02:25      1.76    0.69    1.00
  YS02001918YS02001915 CONDUIT    463.71     0  02:25      0.59    0.26    1.00
  YS02001920YS02001918 CONDUIT    462.78     0  02:25      0.67    0.45    1.00
  YS02001923YS02001920 CONDUIT    459.99     0  02:25      0.69    0.21    1.00
  YS02001926YS02001923 CONDUIT    460.54     0  02:25      0.94    0.66    1.00
  YS02001929YS02001926 CONDUIT    460.05     0  02:25      1.08    0.22    1.00
  YS02006553YS02006556 CONDUIT    804.38     0  02:38      1.02    0.69    1.00
  YS02006556YS02006558 CONDUIT    806.98     0  02:38      1.03    0.64    1.00
  YS02006558YS02006561 CONDUIT   1163.35     0  02:23      4.11    2.57    1.00
  YS02006561YS02001783 CONDUIT   1163.75     0  02:23      2.32    0.60    1.00
  YS02163301YS02001633 CONDUIT    900.43     0  02:14      1.15    0.85    1.00
  YS02163601YS02164001 CONDUIT   1265.98     0  02:14      1.61    1.12    1.00
  YS02164001YS02001641 CONDUIT   1262.88     0  02:14      1.61    1.72    1.00
  CC-R1                PUMP       683.00     0  00:00              1.00
  CC-R2                PUMP       683.00     0  00:00              1.00
  CC-S1                PUMP       200.00     0  00:00              1.00
  CC-S2                PUMP       200.00     0  00:00              1.00
  JK-R1                PUMP      1000.00     0  00:00              1.00
  JK-R2                PUMP      1000.00     0  00:00              1.00
  JK-S                 PUMP       300.00     0  00:00              1.00
  
  
  ***************************
  Flow Classification Summary
  ***************************
  
  -------------------------------------------------------------------------------------
                      Adjusted    ---------- Fraction of Time in Flow Class ---------- 
                       /Actual         Up    Down  Sub   Sup   Up    Down  Norm  Inlet 
  Conduit               Length    Dry  Dry   Dry   Crit  Crit  Crit  Crit  Ltd   Ctrl  
  -------------------------------------------------------------------------------------
  1                       1.00   0.00  0.00  0.00  0.00  1.00  0.00  0.00  0.59  0.00
  WS02003060WS02003069    1.00   0.00  0.00  0.00  0.96  0.04  0.00  0.00  0.74  0.00
  WS02003066WSF200        1.00   0.06  0.00  0.00  0.00  0.94  0.00  0.00  0.77  0.00
  WS02003067WS02003066    1.00   0.05  0.01  0.00  0.94  0.00  0.00  0.00  0.00  0.00
  WS02003069WS02003072    1.00   0.00  0.00  0.00  0.99  0.01  0.00  0.00  0.77  0.00
  WS02003072WS02003073    1.00   0.00  0.00  0.00  0.00  0.00  0.00  1.00  0.00  0.00
  WS02004401WS02004402    1.00   0.02  0.00  0.00  0.98  0.00  0.00  0.00  0.00  0.00
  WS02004402WS02004403    1.00   0.02  0.00  0.00  0.98  0.00  0.00  0.00  0.00  0.00
  WS02004403WS02004404    1.00   0.00  0.03  0.00  0.97  0.00  0.00  0.00  0.00  0.00
  WS02004404WS02004405    1.00   0.00  0.00  0.00  1.00  0.00  0.00  0.00  0.01  0.00
  WS02004405WS02004406    1.00   0.00  0.00  0.00  1.00  0.00  0.00  0.00  0.00  0.00
  WS02004406WS02004407    1.00   0.00  0.03  0.00  0.96  0.00  0.00  0.00  0.00  0.00
  WS02004407WS02004409    1.00   0.04  0.00  0.00  0.96  0.01  0.00  0.00  0.96  0.00
  WS02004409WS02004410    1.00   0.04  0.00  0.00  0.96  0.00  0.00  0.00  0.00  0.00
  WS02004410WS02004411    1.00   0.04  0.00  0.00  0.96  0.00  0.00  0.00  0.00  0.00
  WS02004411WS02004412    1.00   0.04  0.00  0.00  0.96  0.00  0.00  0.00  0.00  0.00
  WS02004412WS02004413    1.00   0.04  0.00  0.00  0.96  0.00  0.00  0.00  0.00  0.00
  WS02004413WS02003067    1.00   0.04  0.01  0.00  0.00  0.00  0.95  0.00  0.00  0.00
  WS02006109WS02006110    1.00   0.00  0.01  0.00  0.98  0.00  0.01  0.00  0.00  0.00
  WS02006110WS02006113    1.00   0.01  0.01  0.00  0.98  0.00  0.00  0.00  0.00  0.00
  WS02006111WS02006112    1.00   0.02  0.00  0.00  0.98  0.00  0.00  0.00  0.98  0.00
  WS02006112WS02006115    1.00   0.02  0.00  0.00  0.97  0.00  0.00  0.00  0.00  0.00
  WS02006113WS02006111    1.00   0.02  0.00  0.00  0.00  0.98  0.00  0.00  0.11  0.00
  WS02006115WS02006116    1.00   0.02  0.00  0.00  0.97  0.00  0.00  0.01  0.00  0.00
  WS02006116WS02004401    1.00   0.02  0.00  0.00  0.98  0.00  0.00  0.00  0.00  0.00
  WS02006228WS02006109    1.00   0.00  0.00  0.00  1.00  0.00  0.00  0.00  0.00  0.00
  WS02006229WS02006228    1.00   0.00  0.00  0.00  0.99  0.00  0.00  0.01  0.00  0.00
  WS02006230WS02006229    1.00   0.00  0.00  0.00  0.99  0.00  0.00  0.01  0.00  0.00
  WS02006231WS02006230    1.00   0.00  0.00  0.00  0.22  0.00  0.77  0.00  0.00  0.00
  WS02006232WS02006231    1.00   0.00  0.00  0.00  0.99  0.00  0.01  0.00  0.00  0.00
  WS02006234WS02006232    1.00   0.00  0.00  0.00  1.00  0.00  0.00  0.00  0.41  0.00
  WS02006235WS02006234    1.00   0.00  0.00  0.00  0.54  0.00  0.46  0.00  0.00  0.00
  WS02006238WS02006235    1.00   0.00  0.00  0.00  1.00  0.00  0.00  0.00  0.00  0.00
  WS02006239WS02006238    1.00   0.00  0.00  0.00  1.00  0.00  0.00  0.00  0.55  0.00
  WS02006240WS02006239    1.00   0.00  0.00  0.00  0.41  0.00  0.00  0.59  0.02  0.00
  WS02006242WS02006240    1.00   0.00  0.00  0.00  1.00  0.00  0.00  0.00  0.00  0.00
  WS02006243WS02006242    1.00   0.00  0.00  0.00  0.99  0.00  0.00  0.00  0.69  0.00
  WS02006245WS02006243    1.00   0.00  0.00  0.00  0.46  0.00  0.00  0.53  0.00  0.00
  WS02006247WS02006245    1.00   0.00  0.00  0.00  1.00  0.00  0.00  0.00  0.00  0.00
  WS02006248WS02006247    1.00   0.00  0.00  0.00  1.00  0.00  0.00  0.00  0.18  0.00
  WS02006249WS02006248    1.00   0.00  0.00  0.00  0.29  0.00  0.71  0.00  0.00  0.00
  WS02006251WS02006249    1.00   0.00  0.00  0.00  1.00  0.00  0.00  0.00  0.73  0.00
  WS02006252WS02006251    1.00   0.00  0.75  0.00  0.15  0.00  0.10  0.00  0.00  0.00
  WS02006256WS02006235    1.00   0.00  0.00  0.00  0.99  0.00  0.00  0.00  0.00  0.00
  WSF200WS02003060        1.00   0.00  0.06  0.00  0.52  0.42  0.00  0.00  0.69  0.00
  YS02001580YS02001583    1.00   0.27  0.53  0.00  0.19  0.00  0.00  0.00  0.63  0.00
  YS02001583YS02001586    1.00   0.40  0.35  0.00  0.25  0.00  0.00  0.00  0.63  0.00
  YS02001586YS02001590    1.00   0.13  0.00  0.00  0.45  0.04  0.00  0.38  0.39  0.00
  YS02001590YS02001593    1.00   0.13  0.01  0.00  0.12  0.00  0.75  0.00  0.00  0.00
  YS02001593YS02001596    1.00   0.14  0.00  0.00  0.14  0.01  0.00  0.72  0.02  0.00
  YS02001596YS02001600    1.00   0.14  0.00  0.00  0.20  0.01  0.00  0.65  0.05  0.00
  YS02001600YS02001601    1.00   0.13  0.01  0.00  0.86  0.00  0.00  0.00  0.59  0.00
  YS02001601YS02001602    1.00   0.13  0.01  0.00  0.86  0.00  0.00  0.00  0.00  0.00
  YS02001602YS02001605    1.00   0.14  0.00  0.00  0.86  0.00  0.00  0.00  0.00  0.00
  YS02001605YS02001607    1.00   0.14  0.00  0.00  0.86  0.00  0.00  0.00  0.00  0.00
  YS02001607YS02001610    1.00   0.13  0.01  0.00  0.86  0.00  0.00  0.00  0.01  0.00
  YS02001610YS02001613    1.00   0.13  0.00  0.00  0.87  0.00  0.00  0.00  0.00  0.00
  YS02001613YS02001616    1.00   0.13  0.00  0.00  0.87  0.00  0.00  0.00  0.00  0.00
  YS02001616YS02001619    1.00   0.13  0.00  0.00  0.87  0.00  0.00  0.00  0.00  0.00
  YS02001619YS02001622    1.00   0.13  0.00  0.00  0.87  0.00  0.00  0.00  0.27  0.00
  YS02001622YS02001625    1.00   0.13  0.00  0.00  0.87  0.00  0.00  0.00  0.05  0.00
  YS02001625YS02001629    1.00   0.13  0.05  0.00  0.16  0.00  0.65  0.00  0.00  0.00
  YS02001629YS02163301    1.00   0.16  0.01  0.00  0.83  0.00  0.00  0.00  0.00  0.00
  YS02001633YS02163601    1.00   0.00  0.01  0.00  0.99  0.00  0.00  0.00  0.15  0.00
  YS02001641YS02001644    1.00   0.00  0.01  0.00  0.99  0.00  0.00  0.00  0.00  0.00
  YS02001644YS02001647    1.00   0.00  0.18  0.00  0.82  0.00  0.00  0.00  0.00  0.00
  YS02001647YS02001649    1.00   0.00  0.17  0.00  0.52  0.31  0.00  0.00  0.55  0.00
  YS02001649YS02001757    1.00   0.00  0.00  0.00  0.67  0.33  0.00  0.00  0.43  0.00
  YS02001652YS02001649    1.00   0.00  0.00  0.00  0.96  0.04  0.00  0.00  0.74  0.00
  YS02001655YS02001652    1.00   0.00  0.00  0.00  0.19  0.01  0.00  0.80  0.05  0.00
  YS02001658YS02001655    1.00   0.00  0.14  0.00  0.66  0.20  0.00  0.00  0.69  0.00
  YS02001661YS02001658    1.00   0.14  0.00  0.00  0.50  0.36  0.00  0.00  0.70  0.00
  YS02001664YS02001661    1.00   0.13  0.00  0.00  0.78  0.09  0.00  0.00  0.85  0.00
  YS02001745YS02001748    1.00   0.00  0.00  0.00  0.10  0.00  0.00  0.89  0.04  0.00
  YS02001748YS02001751    1.00   0.00  0.00  0.00  0.82  0.18  0.00  0.00  0.73  0.00
  YS02001751YS02001754    1.00   0.00  0.00  0.00  0.16  0.01  0.00  0.83  0.03  0.00
  YS02001754YS02001757    1.00   0.00  0.00  0.00  1.00  0.00  0.00  0.00  0.82  0.00
  YS02001757CaochengTiaoxuchi    1.00   0.00  0.00  0.00  1.00  0.00  0.00  0.00  0.82  0.00
  YS02001759YS02001757    1.00   0.00  0.00  0.00  1.00  0.00  0.00  0.00  0.59  0.00
  YS02001762YS02001759    1.00   0.00  0.00  0.00  1.00  0.00  0.00  0.00  0.06  0.00
  YS02001765YS02001762    1.00   0.00  0.00  0.00  1.00  0.00  0.00  0.00  0.71  0.00
  YS02001767YS02001765    1.00   0.00  0.00  0.00  1.00  0.00  0.00  0.00  0.00  0.00
  YS02001770YS02001767    1.00   0.00  0.00  0.00  1.00  0.00  0.00  0.00  0.00  0.00
  YS02001774YS02001770    1.00   0.00  0.13  0.00  0.71  0.00  0.15  0.00  0.03  0.00
  YS02001779YS02001774    1.00   0.00  0.00  0.00  1.00  0.00  0.00  0.00  0.75  0.00
  YS02001783YS02001784    1.00   0.00  0.18  0.00  0.82  0.00  0.00  0.00  0.54  0.00
  YS02001784YS02001785    1.00   0.00  0.00  0.00  1.00  0.00  0.00  0.00  0.17  0.00
  YS02001786YS02001788    1.00   0.00  0.00  0.00  0.79  0.21  0.00  0.00  0.00  0.00
  YS02001788YS02001790    1.00   0.00  0.00  0.00  0.21  0.79  0.00  0.00  0.80  0.00
  YS02001790YS02001791    1.00   0.00  0.00  0.00  0.01  0.99  0.00  0.00  0.16  0.00
  YS02001791YS02001793    1.00   0.00  0.00  0.00  0.00  1.00  0.00  0.00  0.01  0.00
  YS02001793JiankangQianchi    1.00   0.00  0.00  0.00  0.96  0.03  0.00  0.00  0.98  0.00
  YS02001882YS02001884    1.00   0.15  0.01  0.00  0.84  0.00  0.00  0.00  0.00  0.00
  YS02001884YS02001887    1.00   0.06  0.05  0.00  0.89  0.00  0.00  0.00  0.00  0.00
  YS02001887YS02001890    1.00   0.00  0.00  0.00  0.97  0.00  0.03  0.00  0.00  0.00
  YS02001890YS02001895    1.00   0.00  0.16  0.00  0.83  0.00  0.00  0.00  0.00  0.00
  YS02001895YS02001898    1.00   0.17  0.00  0.00  0.81  0.00  0.02  0.00  0.00  0.00
  YS02001898YS02001901    1.00   0.17  0.00  0.00  0.83  0.00  0.00  0.00  0.01  0.00
  YS02001901YS02001904    1.00   0.17  0.00  0.00  0.83  0.00  0.00  0.00  0.00  0.00
  YS02001904YS02001907    1.00   0.00  0.17  0.00  0.83  0.00  0.00  0.00  0.00  0.00
  YS02001907YS02006553    1.00   0.00  0.02  0.00  0.98  0.00  0.00  0.00  0.00  0.00
  YS02001910YS02001907    1.00   0.00  0.00  0.00  0.97  0.00  0.00  0.03  0.12  0.00
  YS02001915YS02001910    1.00   0.00  0.00  0.00  0.96  0.04  0.00  0.00  0.16  0.00
  YS02001918YS02001915    1.00   0.00  0.01  0.00  0.98  0.02  0.00  0.00  0.75  0.00
  YS02001920YS02001918    1.00   0.00  0.01  0.00  0.99  0.00  0.00  0.00  0.00  0.00
  YS02001923YS02001920    1.00   0.00  0.00  0.00  1.00  0.00  0.00  0.00  0.92  0.00
  YS02001926YS02001923    1.00   0.00  0.07  0.00  0.06  0.00  0.87  0.00  0.00  0.00
  YS02001929YS02001926    1.00   0.00  0.13  0.00  0.87  0.00  0.00  0.00  0.82  0.00
  YS02006553YS02006556    1.00   0.01  0.00  0.00  0.99  0.00  0.00  0.00  0.03  0.00
  YS02006556YS02006558    1.00   0.00  0.00  0.00  1.00  0.00  0.00  0.00  0.00  0.00
  YS02006558YS02006561    1.00   0.18  0.00  0.00  0.06  0.76  0.00  0.00  0.19  0.00
  YS02006561YS02001783    1.00   0.18  0.00  0.00  0.09  0.73  0.00  0.00  0.68  0.00
  YS02163301YS02001633    1.00   0.00  0.16  0.00  0.84  0.00  0.00  0.00  0.00  0.00
  YS02163601YS02164001    1.00   0.00  0.08  0.00  0.92  0.00  0.00  0.00  0.00  0.00
  YS02164001YS02001641    1.00   0.01  0.07  0.00  0.92  0.00  0.00  0.00  0.06  0.00
  
  
  *************************
  Conduit Surcharge Summary
  *************************
  
  ----------------------------------------------------------------------------
                                                           Hours        Hours 
                         --------- Hours Full --------   Above Full   Capacity
  Conduit                Both Ends  Upstream  Dnstream   Normal Flow   Limited
  ----------------------------------------------------------------------------
  WS02003072WS02003073        0.01      0.01      0.01      1.20         0.01
  WS02004404WS02004405        0.01      0.01      0.01      2.28         0.01
  WS02004405WS02004406        0.01      0.01      0.01      1.12         0.01
  WS02006109WS02006110        1.16      1.16      1.72      1.18         0.01
  WS02006110WS02006113        0.01      0.01      1.70      0.01         0.01
  WS02006111WS02006112        0.01      0.01      1.78      0.01         0.01
  WS02006112WS02006115        0.01      0.01      1.13      0.01         0.01
  WS02006228WS02006109        1.67      1.73      1.67      1.92         1.67
  WS02006229WS02006228        1.66      1.68      1.66      1.84         1.65
  WS02006230WS02006229        1.76      1.78      1.76      2.78         1.76
  WS02006231WS02006230        1.16      1.16      1.18      2.55         0.01
  WS02006232WS02006231        1.18      1.18      1.72      1.19         0.01
  WS02006234WS02006232        1.63      1.63      1.72      1.18         1.18
  WS02006235WS02006234        1.23      1.23      1.68      2.41         0.01
  WS02006238WS02006235        1.69      1.69      1.72      0.01         0.01
  WS02006239WS02006238        1.67      1.67      1.70      1.72         1.52
  WS02006240WS02006239        1.63      1.64      1.63      1.72         1.43
  WS02006242WS02006240        1.63      1.63      1.67      1.76         0.01
  WS02006243WS02006242        1.64      1.64      1.65      0.01         0.01
  WS02006245WS02006243        1.63      1.63      1.63      0.55         0.67
  WS02006247WS02006245        1.63      1.63      1.63      1.93         1.63
  WS02006248WS02006247        1.63      1.63      1.63      0.01         0.01
  WS02006249WS02006248        1.62      1.63      1.62      1.92         0.01
  WS02006251WS02006249        1.62      1.62      1.62      1.77         1.61
  WS02006252WS02006251        1.79      1.79      1.79      1.79         0.01
  WS02006256WS02006235        2.48      2.49      3.61      1.67         0.01
  YS02001580YS02001583        0.58      0.58      0.65      0.01         0.01
  YS02001583YS02001586        0.59      0.59      0.72      0.01         0.01
  YS02001586YS02001590        0.73      0.73      0.80      0.01         0.01
  YS02001590YS02001593        0.80      0.80      0.82      0.82         0.01
  YS02001593YS02001596        0.82      0.82      0.93      0.01         0.01
  YS02001596YS02001600        0.98      0.98      1.07      0.01         0.01
  YS02001600YS02001601        1.13      1.13      1.41      0.01         0.01
  YS02001601YS02001602        1.30      1.30      1.45      1.07         0.01
  YS02001602YS02001605        1.25      1.25      1.30      2.34         0.01
  YS02001605YS02001607        1.20      1.25      1.20      1.35         1.19
  YS02001607YS02001610        0.79      0.79      0.82      0.01         0.01
  YS02001610YS02001613        0.79      0.79      0.82      0.01         0.01
  YS02001613YS02001616        0.75      0.75      0.79      0.01         0.01
  YS02001616YS02001619        0.73      0.73      0.75      0.01         0.01
  YS02001619YS02001622        0.73      0.73      0.73      0.79         0.71
  YS02001622YS02001625        0.73      0.73      0.91      0.01         0.01
  YS02001625YS02001629        0.68      0.68      0.91      0.01         0.01
  YS02001629YS02163301        0.91      0.91      0.92      0.07         0.11
  YS02001633YS02163601        0.94      0.94      0.98      0.27         0.27
  YS02001641YS02001644        0.86      0.89      0.86      1.50         0.84
  YS02001644YS02001647        0.65      0.65      0.86      0.01         0.01
  YS02001647YS02001649        0.65      0.65      0.78      0.01         0.01
  YS02001649YS02001757        0.78      0.78      0.84      0.06         0.04
  YS02001652YS02001649        0.62      0.62      0.78      0.01         0.01
  YS02001655YS02001652        0.45      0.45      0.60      0.01         0.01
  YS02001658YS02001655        0.26      0.26      0.45      0.01         0.01
  YS02001661YS02001658        0.03      0.03      0.26      0.01         0.01
  YS02001664YS02001661        0.01      0.01      0.08      0.01         0.01
  YS02001745YS02001748        0.01      0.01      0.19      0.01         0.01
  YS02001748YS02001751        0.23      0.23      0.35      0.01         0.01
  YS02001751YS02001754        0.35      0.35      0.52      0.01         0.01
  YS02001754YS02001757        0.56      0.56      0.84      0.01         0.01
  YS02001757CaochengTiaoxuchi        0.84      0.84      1.40      0.32         0.32
  YS02001759YS02001757        0.76      0.76      0.84      0.01         0.01
  YS02001762YS02001759        0.73      0.73      0.76      0.01         0.01
  YS02001765YS02001762        0.69      0.69      0.73      0.01         0.01
  YS02001767YS02001765        0.66      0.66      0.69      0.01         0.01
  YS02001770YS02001767        0.65      0.65      0.66      0.45         0.41
  YS02001774YS02001770        0.63      0.63      0.71      0.01         0.01
  YS02001779YS02001774        0.51      0.51      0.71      0.01         0.01
  YS02001783YS02001784        0.50      0.52      0.50      0.69         0.50
  YS02001784YS02001785        0.39      0.50      0.39      0.94         0.39
  YS02001786YS02001788        0.01      0.39      0.01      0.81         0.01
  YS02001790YS02001791        0.01      0.01      0.01      0.48         0.01
  YS02001793JiankangQianchi        0.01      0.01      7.61      0.01         0.01
  YS02001882YS02001884        0.47      0.47      0.48      0.01         0.01
  YS02001884YS02001887        0.50      0.50      0.51      0.01         0.01
  YS02001887YS02001890        0.53      0.53      0.54      0.10         0.01
  YS02001890YS02001895        0.46      0.46      0.56      0.01         0.01
  YS02001895YS02001898        0.45      0.45      0.46      0.01         0.01
  YS02001898YS02001901        0.46      0.46      0.50      0.01         0.01
  YS02001901YS02001904        0.49      0.49      0.50      0.01         0.01
  YS02001904YS02001907        0.49      0.49      0.79      0.01         0.01
  YS02001907YS02006553        0.95      0.95      1.03      0.01         0.01
  YS02001910YS02001907        0.56      0.56      0.78      0.01         0.01
  YS02001915YS02001910        0.46      0.46      0.56      0.01         0.01
  YS02001918YS02001915        0.38      0.38      0.46      0.01         0.01
  YS02001920YS02001918        0.38      0.38      0.39      0.01         0.01
  YS02001923YS02001920        0.33      0.33      0.39      0.01         0.01
  YS02001926YS02001923        0.08      0.08      0.12      0.01         0.01
  YS02001929YS02001926        0.01      0.01      0.12      0.01         0.01
  YS02006553YS02006556        0.65      0.65      0.79      0.01         0.01
  YS02006556YS02006558        0.72      0.72      0.81      0.01         0.01
  YS02006558YS02006561        0.41      0.64      0.41      0.89         0.41
  YS02006561YS02001783        0.34      0.34      0.52      0.01         0.01
  YS02163301YS02001633        0.92      0.92      0.96      0.01         0.01
  YS02163601YS02164001        0.89      0.89      0.98      0.08         0.01
  YS02164001YS02001641        0.89      0.89      0.89      0.65         0.58
  
  
  ***************
  Pumping Summary
  ***************
  
  ---------------------------------------------------------------------------------------------------------
                                                  Min       Avg       Max     Total     Power    % Time Off
                        Percent   Number of      Flow      Flow      Flow    Volume     Usage    Pump Curve
  Pump                 Utilized   Start-Ups       LPS       LPS       LPS  10^6 ltr     Kw-hr    Low   High
  ---------------------------------------------------------------------------------------------------------
  CC-R1                   21.14           2      0.00    683.00    683.00     4.115     76.71    0.0   23.1
  CC-R2                   19.74           2      0.00    683.00    683.00     3.842     71.66    0.0   24.7
  CC-S1                   24.61           2      0.00    200.00    200.00     1.403      7.88    0.0    0.0
  CC-S2                   22.60           2      0.00    200.00    200.00     1.288      7.19    0.0    0.0
  JK-R1                    7.74           5      0.00   1000.00   1000.00     2.205     20.88    0.0    0.0
  JK-R2                    0.17           1      0.00   1000.00   1000.00     0.047      0.36    0.0    0.0
  JK-S                    21.03           3      0.00    300.00    300.00     1.798     28.97    0.0    0.0
  

  Analysis begun on:  Thu Jan 16 14:25:04 2025
  Analysis ended on:  Thu Jan 16 14:25:05 2025
  Total elapsed time: 00:00:01