
  EPA STORM WATER MANAGEMENT MODEL - VERSION 5.2 (Build 5.2.4)
  PYSWMM TOOLKIT API - VERSION v1.0 (2023-11-27)
  ------------------------------------------------------------

  WARNING 04: minimum elevation drop used for Conduit WS02004404WS02004405
  WARNING 03: negative offset ignored for Link YS02001904YS02001907
  
  ****************
  Analysis Options
  ****************
  Flow Units ............... LPS
  Process Models:
    Rainfall/Runoff ........ YES
    RDII ................... NO
    Snowmelt ............... NO
    Groundwater ............ NO
    Flow Routing ........... YES
    Ponding Allowed ........ NO
    Water Quality .......... NO
  Infiltration Method ...... HORTON
  Flow Routing Method ...... DYNWAVE
  Surcharge Method ......... EXTRAN
  Starting Date ............ 08/28/2015 08:00:00
  Ending Date .............. 08/28/2015 16:00:00
  Antecedent Dry Days ...... 8.0
  Report Time Step ......... 00:01:00
  Wet Time Step ............ 00:01:00
  Dry Time Step ............ 00:01:00
  Routing Time Step ........ 30.00 sec
  Variable Time Step ....... YES
  Maximum Trials ........... 8
  Number of Threads ........ 4
  Head Tolerance ........... 0.001500 m
  
  
  **************************        Volume         Depth
  Runoff Quantity Continuity     hectare-m            mm
  **************************     ---------       -------
  Total Precipitation ......         1.900        57.282
  Evaporation Loss .........         0.000         0.000
  Infiltration Loss ........         0.099         2.978
  Surface Runoff ...........         1.769        53.320
  Final Storage ............         0.033         0.996
  Continuity Error (%) .....        -0.022
  
  
  **************************        Volume        Volume
  Flow Routing Continuity        hectare-m      10^6 ltr
  **************************     ---------     ---------
  Dry Weather Inflow .......         0.025         0.248
  Wet Weather Inflow .......         1.769        17.686
  Groundwater Inflow .......         0.000         0.000
  RDII Inflow ..............         0.000         0.000
  External Inflow ..........         0.083         0.825
  External Outflow .........         1.370        13.700
  Flooding Loss ............         0.520         5.195
  Evaporation Loss .........         0.000         0.000
  Exfiltration Loss ........         0.000         0.000
  Initial Stored Volume ....         0.243         2.431
  Final Stored Volume ......         0.233         2.328
  Continuity Error (%) .....        -0.157
  
  
  *************************
  Highest Continuity Errors
  *************************
  Node YS02001884 (5.02%)
  Node YS02001583 (-4.17%)
  
  
  ***************************
  Time-Step Critical Elements
  ***************************
  Link WS02004404WS02004405 (35.67%)
  Link YS02001791YS02001793 (14.08%)
  Link WS02006238WS02006235 (11.38%)
  Link WS02006235WS02006234 (7.52%)
  Link WS02006252WS02006251 (7.47%)
  
  
  ********************************
  Highest Flow Instability Indexes
  ********************************
  Link WS02006113WS02006111 (31)
  Link WS02006238WS02006235 (24)
  Link WS02006111WS02006112 (22)
  Link WS02006235WS02006234 (17)
  Link WS02006110WS02006113 (17)
  
  
  *********************************
  Most Frequent Nonconverging Nodes
  *********************************
  Node CC-1 (9.44%)
  Node CC-2 (9.44%)
  Node JK-1 (9.44%)
  Node JK-2 (9.44%)
  Node WSC (9.44%)
  
  
  *************************
  Routing Time Step Summary
  *************************
  Minimum Time Step           :     0.01 sec
  Average Time Step           :     3.46 sec
  Maximum Time Step           :     6.43 sec
  % of Time in Steady State   :     0.00
  Average Iterations per Step :     3.11
  % of Steps Not Converging   :     9.44
  Time Step Frequencies       :
     30.000 - 13.228 sec      :     0.00 %
     13.228 -  5.833 sec      :    26.31 %
      5.833 -  2.572 sec      :    28.90 %
      2.572 -  1.134 sec      :    29.92 %
      1.134 -  0.500 sec      :    14.87 %
  
  
  ***************************
  Subcatchment Runoff Summary
  ***************************
  
  ------------------------------------------------------------------------------------------------------------------------------
                            Total      Total      Total      Total     Imperv       Perv      Total       Total     Peak  Runoff
                           Precip      Runon       Evap      Infil     Runoff     Runoff     Runoff      Runoff   Runoff   Coeff
  Subcatchment                 mm         mm         mm         mm         mm         mm         mm    10^6 ltr      LPS
  ------------------------------------------------------------------------------------------------------------------------------
  sub60                     57.28       0.00       0.00       1.78      49.20       5.09      54.30        0.71   509.23   0.948
  sub61                     57.28       0.00       0.00       2.59      46.41       7.16      53.57        0.98   707.38   0.935
  sub62                     57.28       0.00       0.00       1.19      51.41       3.40      54.81        1.50   989.92   0.957
  sub63                     57.28       0.00       0.00       4.79      39.70      11.82      51.52        1.17   790.65   0.899
  sub64                     57.28       0.00       0.00       2.42      47.48       6.18      53.66        1.29   809.38   0.937
  sub65                     57.28       0.00       0.00       2.09      48.58       5.36      53.93        1.48   903.77   0.942
  sub66                     57.28       0.00       0.00       5.95      39.59      10.67      50.26        2.34  1178.22   0.877
  sub67                     57.28       0.00       0.00       1.14      51.45       3.44      54.90        1.02   769.90   0.958
  sub68                     57.28       0.00       0.00       2.14      48.07       5.88      53.95        1.48  1012.92   0.942
  sub69                     57.28       0.00       0.00       1.91      48.58       6.68      55.26        2.05  1201.55   0.965
  sub70                     57.28       0.00       0.00       6.40      37.64      13.08      50.72        1.47   660.88   0.885
  sub71                     57.28       0.00       0.00       1.22      51.37       3.36      54.73        1.43   874.94   0.956
  sub72                     57.28       0.00       0.00       1.09      51.86       2.92      54.79        0.75   421.38   0.956
  
  
  ******************
  Node Depth Summary
  ******************
  
  ---------------------------------------------------------------------------------
                                 Average  Maximum  Maximum  Time of Max    Reported
                                   Depth    Depth      HGL   Occurrence   Max Depth
  Node                 Type       Meters   Meters   Meters  days hr:min      Meters
  ---------------------------------------------------------------------------------
  WS02003060           JUNCTION     0.20     0.38     5.32     0  02:55        0.38
  WS02003066           JUNCTION     0.16     0.30     5.85     0  02:54        0.30
  WS02003067           JUNCTION     0.45     0.70     6.02     0  02:54        0.70
  WS02003069           JUNCTION     0.22     0.43     5.01     0  02:56        0.43
  WS02003072           JUNCTION     0.28     0.50     4.87     0  02:56        0.50
  WS02003073           JUNCTION     0.15     0.30     4.36     0  02:33        0.30
  WS02004401           JUNCTION     0.53     0.85     6.85     0  02:47        0.85
  WS02004402           JUNCTION     0.56     0.88     6.84     0  02:47        0.88
  WS02004403           JUNCTION     0.59     0.89     6.82     0  02:48        0.89
  WS02004404           JUNCTION     0.66     0.96     6.81     0  02:48        0.96
  WS02004405           JUNCTION     0.66     0.96     6.81     0  02:48        0.96
  WS02004406           JUNCTION     0.67     0.96     6.79     0  02:52        0.96
  WS02004407           JUNCTION     0.14     0.30     6.61     0  02:52        0.30
  WS02004409           JUNCTION     0.32     0.67     6.44     0  02:54        0.67
  WS02004410           JUNCTION     0.35     0.68     6.40     0  02:53        0.68
  WS02004411           JUNCTION     0.37     0.69     6.37     0  02:45        0.69
  WS02004412           JUNCTION     0.40     0.70     6.34     0  02:53        0.70
  WS02004413           JUNCTION     0.55     0.86     6.33     0  02:54        0.86
  WS02006109           JUNCTION     0.60     1.05     7.67     0  03:36        0.98
  WS02006110           JUNCTION     0.60     1.03     7.61     0  03:36        0.94
  WS02006111           JUNCTION     0.15     0.29     6.99     0  03:03        0.29
  WS02006112           JUNCTION     0.69     1.06     6.95     0  02:38        1.06
  WS02006113           JUNCTION     0.23     0.46     7.35     0  03:02        0.46
  WS02006115           JUNCTION     0.42     0.75     6.89     0  02:47        0.75
  WS02006116           JUNCTION     0.50     0.83     6.87     0  02:47        0.83
  WS02006228           JUNCTION     0.60     1.08     7.73     0  03:36        1.04
  WS02006229           JUNCTION     0.57     1.08     7.78     0  03:35        1.08
  WS02006230           JUNCTION     0.57     1.22     7.96     0  03:35        1.18
  WS02006231           JUNCTION     0.38     0.95     8.07     0  03:35        0.93
  WS02006232           JUNCTION     0.51     1.13     8.17     0  03:35        1.13
  WS02006234           JUNCTION     0.44     1.15     8.31     0  02:14        1.15
  WS02006235           JUNCTION     0.48     1.31     8.48     0  02:14        1.31
  WS02006238           JUNCTION     0.51     1.27     8.41     0  02:14        1.27
  WS02006239           JUNCTION     0.47     1.40     8.60     0  02:06        1.21
  WS02006240           JUNCTION     0.45     1.32     8.61     0  02:06        1.17
  WS02006242           JUNCTION     0.50     1.28     8.55     0  03:36        1.24
  WS02006243           JUNCTION     0.42     1.18     8.60     0  03:36        1.14
  WS02006245           JUNCTION     0.42     1.17     8.66     0  02:14        1.17
  WS02006247           JUNCTION     0.43     1.23     8.73     0  02:14        1.23
  WS02006248           JUNCTION     0.40     1.09     8.67     0  03:36        1.09
  WS02006249           JUNCTION     0.42     1.09     8.69     0  02:07        1.09
  WS02006251           JUNCTION     0.42     1.45     9.12     0  02:07        1.12
  WS02006252           JUNCTION     0.29     1.50     9.74     0  00:00        0.74
  WS02006256           JUNCTION     1.19     2.35     9.28     0  00:00        2.35
  WSF200               JUNCTION     0.14     0.29     5.52     0  02:54        0.29
  YS02001580           JUNCTION     0.12     1.05     9.59     0  02:05        0.77
  YS02001583           JUNCTION     0.15     1.14     9.64     0  02:05        0.84
  YS02001586           JUNCTION     0.26     1.13     9.30     0  02:05        1.13
  YS02001590           JUNCTION     0.37     1.40     9.26     0  02:07        1.40
  YS02001593           JUNCTION     0.30     1.34     9.20     0  02:07        1.34
  YS02001596           JUNCTION     0.43     1.71     9.13     0  02:07        1.71
  YS02001600           JUNCTION     0.53     1.87     9.00     0  02:14        1.87
  YS02001601           JUNCTION     0.72     2.06     8.90     0  02:04        2.06
  YS02001602           JUNCTION     0.62     1.87     8.77     0  02:04        1.87
  YS02001605           JUNCTION     0.57     1.78     8.68     0  02:04        1.78
  YS02001607           JUNCTION     0.53     1.68     8.53     0  02:04        1.68
  YS02001610           JUNCTION     0.57     1.68     8.48     0  02:04        1.68
  YS02001613           JUNCTION     0.53     1.70     8.54     0  02:04        1.70
  YS02001616           JUNCTION     0.47     1.61     8.52     0  02:04        1.61
  YS02001619           JUNCTION     0.45     1.61     8.54     0  02:04        1.61
  YS02001622           JUNCTION     0.43     1.62     8.52     0  02:07        1.62
  YS02001625           JUNCTION     0.68     1.78     8.38     0  02:07        1.78
  YS02001629           JUNCTION     0.58     1.85     8.40     0  02:04        1.85
  YS02001633           JUNCTION     0.65     2.08     8.53     0  02:14        2.08
  YS02001641           JUNCTION     0.62     1.95     8.39     0  02:09        1.94
  YS02001644           JUNCTION     0.61     1.92     8.35     0  02:09        1.92
  YS02001647           JUNCTION     0.39     1.75     8.36     0  02:14        1.73
  YS02001649           JUNCTION     0.45     1.98     8.37     0  02:14        1.94
  YS02001652           JUNCTION     0.33     1.86     8.46     0  02:10        1.75
  YS02001655           JUNCTION     0.25     1.74     8.59     0  02:09        1.53
  YS02001658           JUNCTION     0.18     1.68     8.82     0  02:09        1.28
  YS02001661           JUNCTION     0.18     1.44     8.84     0  02:10        1.07
  YS02001664           JUNCTION     0.07     0.56     8.49     0  02:10        0.50
  YS02001745           JUNCTION     0.09     0.78     8.30     0  02:12        0.78
  YS02001748           JUNCTION     0.17     1.84     8.92     0  02:10        1.84
  YS02001751           JUNCTION     0.21     1.76     8.64     0  02:10        1.76
  YS02001754           JUNCTION     0.29     1.83     8.44     0  02:10        1.71
  YS02001757           JUNCTION     0.46     2.04     8.30     0  02:14        1.98
  YS02001759           JUNCTION     0.41     2.04     8.41     0  02:14        1.97
  YS02001762           JUNCTION     0.40     2.03     8.43     0  02:14        1.95
  YS02001765           JUNCTION     0.37     1.99     8.44     0  02:14        1.91
  YS02001767           JUNCTION     0.37     1.96     8.45     0  02:14        1.89
  YS02001770           JUNCTION     0.38     1.95     8.44     0  02:14        1.94
  YS02001774           JUNCTION     0.44     2.00     8.42     0  02:14        1.98
  YS02001779           JUNCTION     0.27     1.68     8.37     0  02:08        1.68
  YS02001783           JUNCTION     0.31     1.27     7.41     0  02:08        1.23
  YS02001784           JUNCTION     0.32     1.14     7.21     0  02:08        1.14
  YS02001786           JUNCTION     0.27     0.90     6.93     0  02:08        0.88
  YS02001788           JUNCTION     0.20     0.62     6.60     0  02:11        0.62
  YS02001790           JUNCTION     0.23     0.73     6.37     0  02:12        0.72
  YS02001791           JUNCTION     0.15     0.44     5.91     0  02:12        0.43
  YS02001793           JUNCTION     0.07     0.25     5.08     0  02:29        0.24
  YS02001882           JUNCTION     0.38     1.68     8.39     0  02:07        1.64
  YS02001884           JUNCTION     0.47     1.76     8.37     0  02:14        1.75
  YS02001887           JUNCTION     0.54     1.83     8.37     0  02:13        1.83
  YS02001890           JUNCTION     0.57     1.81     8.32     0  02:08        1.81
  YS02001895           JUNCTION     0.35     1.57     8.32     0  02:09        1.56
  YS02001898           JUNCTION     0.36     1.56     8.30     0  02:08        1.55
  YS02001901           JUNCTION     0.46     1.74     8.35     0  02:14        1.74
  YS02001904           JUNCTION     0.44     1.66     8.29     0  02:14        1.66
  YS02001907           JUNCTION     0.75     1.96     8.25     0  02:08        1.96
  YS02001910           JUNCTION     0.56     1.97     8.48     0  02:09        1.88
  YS02001915           JUNCTION     0.38     1.91     8.63     0  02:09        1.85
  YS02001918           JUNCTION     0.21     1.81     8.88     0  02:09        1.46
  YS02001920           JUNCTION     0.29     2.14     9.14     0  02:09        1.57
  YS02001923           JUNCTION     0.16     2.03     9.29     0  02:09        1.26
  YS02001926           JUNCTION     0.20     1.90     9.35     0  02:09        1.09
  YS02001929           JUNCTION     0.11     1.78     9.47     0  02:09        0.86
  YS02006553           JUNCTION     0.75     1.98     8.26     0  02:12        1.98
  YS02006556           JUNCTION     0.73     1.96     8.27     0  02:12        1.96
  YS02006558           JUNCTION     0.77     2.02     8.28     0  02:12        2.02
  YS02006561           JUNCTION     0.19     0.95     7.61     0  02:08        0.90
  YS02163301           JUNCTION     0.60     1.91     8.43     0  02:09        1.91
  YS02163601           JUNCTION     0.68     2.08     8.48     0  02:14        2.08
  YS02164001           JUNCTION     0.61     1.95     8.41     0  02:09        1.94
  CC-1                 OUTFALL      0.00     0.00     0.00     0  00:00        0.00
  CC-2                 OUTFALL      0.00     0.00     0.00     0  00:00        0.00
  JK-1                 OUTFALL      0.00     0.00     0.00     0  00:00        0.00
  JK-2                 OUTFALL      0.00     0.00     0.00     0  00:00        0.00
  WSC                  OUTFALL      0.15     0.30     0.97     0  02:33        0.30
  CC-storage           STORAGE      0.88     1.69     7.19     0  02:36        1.69
  JK-storage           STORAGE      2.32     4.23     5.03     0  02:29        4.17
  
  
  *******************
  Node Inflow Summary
  *******************
  
  -------------------------------------------------------------------------------------------------
                                  Maximum  Maximum                  Lateral       Total        Flow
                                  Lateral    Total  Time of Max      Inflow      Inflow     Balance
                                   Inflow   Inflow   Occurrence      Volume      Volume       Error
  Node                 Type           LPS      LPS  days hr:min    10^6 ltr    10^6 ltr     Percent
  -------------------------------------------------------------------------------------------------
  WS02003060           JUNCTION     16.53   553.56     0  02:55       0.471        3.96       0.049
  WS02003066           JUNCTION      0.00   536.78     0  02:54           0        3.49       0.035
  WS02003067           JUNCTION      0.00   536.72     0  02:54           0         3.5       0.114
  WS02003069           JUNCTION      0.32   553.67     0  02:55     0.00912        3.97       0.087
  WS02003072           JUNCTION      0.00   553.42     0  02:56           0        3.97       0.157
  WS02003073           JUNCTION      1.82   555.15     0  02:57      0.0519        4.01       0.122
  WS02004401           JUNCTION      0.00   539.68     0  02:47           0        3.59       0.276
  WS02004402           JUNCTION      0.00   538.40     0  02:47           0        3.58       0.280
  WS02004403           JUNCTION      0.00   538.73     0  02:47           0        3.57       0.276
  WS02004404           JUNCTION      0.16   538.12     0  02:47     0.00462        3.57       0.235
  WS02004405           JUNCTION      0.04   537.96     0  02:52     0.00109        3.56       0.336
  WS02004406           JUNCTION      0.00   538.23     0  02:48           0        3.55       0.580
  WS02004407           JUNCTION      0.00   537.61     0  02:52           0        3.53       0.025
  WS02004409           JUNCTION      0.00   537.32     0  02:52           0        3.53       0.061
  WS02004410           JUNCTION      0.00   537.10     0  02:48           0        3.52       0.110
  WS02004411           JUNCTION      0.00   537.03     0  02:53           0        3.52       0.144
  WS02004412           JUNCTION      0.00   536.90     0  02:53           0        3.52       0.196
  WS02004413           JUNCTION      0.00   536.99     0  02:54           0        3.51       0.363
  WS02006109           JUNCTION      1.23   546.94     0  03:36      0.0351        3.64       0.262
  WS02006110           JUNCTION      0.00   548.10     0  03:36           0        3.63       0.176
  WS02006111           JUNCTION      0.00   560.27     0  03:07           0        3.62       0.019
  WS02006112           JUNCTION      0.00   543.80     0  03:03           0        3.62       0.543
  WS02006113           JUNCTION      0.00   557.18     0  02:08           0        3.62       0.044
  WS02006115           JUNCTION      0.00   545.01     0  02:20           0         3.6       0.174
  WS02006116           JUNCTION      0.00   540.75     0  02:47           0         3.6       0.112
  WS02006228           JUNCTION      0.00   544.95     0  03:36           0        3.61       0.110
  WS02006229           JUNCTION      0.00   544.81     0  03:36           0        3.61       0.116
  WS02006230           JUNCTION     10.28   580.94     0  03:35       0.293        3.62       0.172
  WS02006231           JUNCTION      0.00   570.46     0  03:35           0        3.32      -0.077
  WS02006232           JUNCTION      0.00   569.37     0  03:35           0        3.33       0.199
  WS02006234           JUNCTION      0.00   565.22     0  03:35           0        3.33      -0.166
  WS02006235           JUNCTION      0.00   558.42     0  03:35           0        3.38       0.176
  WS02006238           JUNCTION      0.00   417.34     0  03:07           0        2.31      -0.152
  WS02006239           JUNCTION      0.00   417.22     0  03:07           0        2.28      -0.111
  WS02006240           JUNCTION      0.00   415.60     0  03:07           0        2.26      -0.069
  WS02006242           JUNCTION      0.00   415.66     0  03:07           0        2.24      -0.046
  WS02006243           JUNCTION      0.00   415.08     0  03:07           0        2.23      -0.062
  WS02006245           JUNCTION      0.00   414.17     0  03:07           0        2.22       0.197
  WS02006247           JUNCTION      0.00   413.71     0  03:07           0        2.22      -0.038
  WS02006248           JUNCTION      0.00   413.81     0  03:07           0        2.22       0.072
  WS02006249           JUNCTION      0.00   459.02     0  00:00           0        2.49       0.210
  WS02006251           JUNCTION      0.08   406.03     0  02:07     0.00219        2.49      -0.032
  WS02006252           JUNCTION      0.00   400.00     0  00:00           0        2.48      -0.018
  WS02006256           JUNCTION      0.00   300.00     0  00:00           0        1.58      -0.170
  WSF200               JUNCTION      0.00   536.83     0  02:54           0        3.49       0.009
  YS02001580           JUNCTION      0.00    99.41     0  02:05           0     0.00418      -0.387
  YS02001583           JUNCTION      0.00   150.03     0  02:04           0      0.0153      -4.001
  YS02001586           JUNCTION    660.88   660.88     0  02:15        1.47        1.48       0.080
  YS02001590           JUNCTION      0.00   318.35     0  02:14           0        1.21      -0.035
  YS02001593           JUNCTION      0.00   318.01     0  02:14           0        1.21      -0.008
  YS02001596           JUNCTION      0.00   317.98     0  02:28           0        1.21      -0.015
  YS02001600           JUNCTION      0.00   318.05     0  02:10           0        1.21       0.006
  YS02001601           JUNCTION   1201.55  1519.14     0  02:14        2.05        3.26       0.019
  YS02001602           JUNCTION      0.00   511.51     0  02:04           0        2.12       0.019
  YS02001605           JUNCTION      0.00   511.65     0  02:04           0        2.02       0.018
  YS02001607           JUNCTION      0.00   511.63     0  02:04           0        2.02       0.093
  YS02001610           JUNCTION      0.00   620.28     0  02:15           0        2.15       0.102
  YS02001613           JUNCTION      0.00   522.23     0  02:04           0        1.76       0.087
  YS02001616           JUNCTION      0.00   523.92     0  02:04           0        1.76       0.020
  YS02001619           JUNCTION   1178.22  1178.22     0  02:15        2.34        3.97      -0.002
  YS02001622           JUNCTION      0.00   924.22     0  02:13           0        3.84      -0.001
  YS02001625           JUNCTION      0.00  1253.31     0  02:14           0        3.99       0.231
  YS02001629           JUNCTION      0.00   927.64     0  02:04           0        3.19       0.016
  YS02001633           JUNCTION    903.97  1349.97     0  02:07        1.49         4.5       0.075
  YS02001641           JUNCTION      0.00  1347.96     0  02:07           0        4.34       0.060
  YS02001644           JUNCTION    809.42  1736.53     0  02:07        1.29        5.62       0.057
  YS02001647           JUNCTION      0.00  1735.75     0  02:07           0        5.31       0.006
  YS02001649           JUNCTION      0.00  1912.09     0  02:06           0        6.48       0.003
  YS02001652           JUNCTION      0.00   827.26     0  02:14           0        1.18      -0.097
  YS02001655           JUNCTION      0.15   831.08     0  02:14     0.00439        1.17      -0.021
  YS02001658           JUNCTION      0.00   833.15     0  02:14           0        1.17      -0.009
  YS02001661           JUNCTION      0.00   840.61     0  02:13           0        1.17      -0.004
  YS02001664           JUNCTION    790.65   790.65     0  02:13        1.17        1.17      -0.010
  YS02001745           JUNCTION    509.23   509.23     0  02:13       0.714       0.714       0.191
  YS02001748           JUNCTION      0.04   581.45     0  02:09     0.00128       0.715      -0.351
  YS02001751           JUNCTION      0.01   525.38     0  02:14    0.000313       0.724       0.085
  YS02001754           JUNCTION      0.26   523.06     0  02:14     0.00741       0.739      -0.136
  YS02001757           JUNCTION      0.00  3165.32     0  02:11           0        9.59       0.009
  YS02001759           JUNCTION    707.42  1298.24     0  02:13       0.984        2.37      -0.014
  YS02001762           JUNCTION      0.00   693.58     0  02:10           0        1.39       0.002
  YS02001765           JUNCTION      0.00   694.50     0  02:10           0        1.39       0.012
  YS02001767           JUNCTION      0.54   694.89     0  02:10      0.0152        1.39       0.011
  YS02001770           JUNCTION    990.07   990.07     0  02:14        1.51        1.55      -0.020
  YS02001774           JUNCTION      0.00   439.25     0  02:14           0       0.191       0.457
  YS02001779           JUNCTION      0.01   440.27     0  02:14    0.000142       0.148      -0.325
  YS02001783           JUNCTION      0.00  1162.51     0  02:12           0        3.71       0.006
  YS02001784           JUNCTION      1.06  1163.62     0  02:13      0.0302        3.74       0.014
  YS02001786           JUNCTION      0.06  1164.21     0  02:13      0.0016        3.74       0.019
  YS02001788           JUNCTION      0.07  1164.36     0  02:13     0.00202        3.74       0.008
  YS02001790           JUNCTION      0.15  1172.42     0  02:13     0.00442        3.74       0.036
  YS02001791           JUNCTION      0.00  1290.00     0  02:13           0        3.74      -0.036
  YS02001793           JUNCTION      0.00  1260.69     0  02:12           0        3.74       0.004
  YS02001882           JUNCTION      0.00    35.69     0  02:06           0      0.0125       4.168
  YS02001884           JUNCTION      0.00    72.24     0  02:06           0      0.0484       5.287
  YS02001887           JUNCTION    770.35   771.51     0  02:13        1.03        1.07       0.411
  YS02001890           JUNCTION      0.00   771.50     0  02:13           0        1.03       0.496
  YS02001895           JUNCTION      0.00   517.32     0  02:16           0       0.956       0.150
  YS02001898           JUNCTION      0.00   517.04     0  02:15           0       0.954       0.021
  YS02001901           JUNCTION      0.00   517.05     0  02:16           0       0.957       0.333
  YS02001904           JUNCTION      0.00   517.38     0  02:14           0       0.961       0.283
  YS02001907           JUNCTION      0.00  1827.89     0  02:13           0        3.22       0.560
  YS02001910           JUNCTION      0.00  1313.48     0  02:13           0        2.27       0.314
  YS02001915           JUNCTION    874.96  1313.47     0  02:13        1.43         2.3       0.060
  YS02001918           JUNCTION      0.00   456.44     0  02:13           0       0.899      -0.024
  YS02001920           JUNCTION      2.87   456.41     0  02:13      0.0818       0.883       0.093
  YS02001923           JUNCTION      0.04   450.10     0  02:13     0.00107       0.786      -0.082
  YS02001926           JUNCTION      0.05   485.44     0  02:08     0.00149       0.765      -0.129
  YS02001929           JUNCTION    421.38   421.38     0  02:14       0.753       0.754      -0.081
  YS02006553           JUNCTION      0.00   798.83     0  02:28           0        2.25       0.530
  YS02006556           JUNCTION      0.00   798.05     0  02:27           0        2.25       0.362
  YS02006558           JUNCTION   1013.80  1163.49     0  02:12        1.51        3.74       0.092
  YS02006561           JUNCTION      0.00  1163.24     0  02:13           0        3.71      -0.003
  YS02163301           JUNCTION      0.00   923.67     0  02:07           0        3.18       0.042
  YS02163601           JUNCTION      0.11  1350.21     0  02:07     0.00313        4.33       0.110
  YS02164001           JUNCTION      0.00  1349.80     0  02:07           0        4.33       0.046
  CC-1                 OUTFALL       0.00   683.00     0  00:00           0        3.88       0.000
  CC-2                 OUTFALL       0.00   683.00     0  00:00           0        3.69       0.000
  JK-1                 OUTFALL       0.00  1000.00     0  00:00           0        2.08       0.000
  JK-2                 OUTFALL       0.00  1000.00     0  00:00           0      0.0484       0.000
  WSC                  OUTFALL       0.00   555.10     0  02:33           0        4.01       0.000
  CC-storage           STORAGE       0.00  3164.42     0  02:11           0        11.8      -0.156
  JK-storage           STORAGE       0.00  1295.41     0  02:12           0         3.9       0.164
  
  
  **********************
  Node Surcharge Summary
  **********************
  
  Surcharging occurs when water rises above the top of the highest conduit.
  ---------------------------------------------------------------------
                                               Max. Height   Min. Depth
                                   Hours       Above Crown    Below Rim
  Node                 Type      Surcharged         Meters       Meters
  ---------------------------------------------------------------------
  WS02006109           JUNCTION        1.57          0.233        1.587
  WS02006110           JUNCTION        0.98          0.118        1.732
  WS02006112           JUNCTION        0.94          0.063        1.617
  WS02006228           JUNCTION        1.55          0.246        1.954
  WS02006229           JUNCTION        1.58          0.283        2.167
  WS02006230           JUNCTION        0.99          0.138        1.432
  WS02006231           JUNCTION        1.02          0.236        1.294
  WS02006232           JUNCTION        1.62          0.426        1.054
  WS02006234           JUNCTION        1.12          0.434        0.806
  WS02006235           JUNCTION        1.57          0.602        0.688
  WS02006238           JUNCTION        1.59          0.551        0.879
  WS02006239           JUNCTION        1.53          0.655        0.635
  WS02006240           JUNCTION        1.52          0.605        0.785
  WS02006242           JUNCTION        1.53          0.550        0.270
  WS02006243           JUNCTION        1.51          0.467        0.303
  WS02006245           JUNCTION        1.50          0.462        0.388
  WS02006247           JUNCTION        1.50          0.519        0.241
  WS02006248           JUNCTION        1.49          0.367        0.013
  WS02006249           JUNCTION        1.49          0.390        0.000
  WS02006251           JUNCTION        1.01          0.421        0.759
  WS02006252           JUNCTION        1.66          1.100        0.000
  WS02006256           JUNCTION        2.97          2.050        0.000
  YS02001580           JUNCTION        0.53          0.450        0.000
  YS02001583           JUNCTION        0.54          0.500        0.000
  YS02001586           JUNCTION        0.66          0.510        0.000
  YS02001590           JUNCTION        0.73          0.750        0.000
  YS02001593           JUNCTION        0.74          0.717        0.123
  YS02001596           JUNCTION        0.84          0.979        0.091
  YS02001600           JUNCTION        1.00          1.190        0.000
  YS02001601           JUNCTION        1.33          1.440        0.000
  YS02001602           JUNCTION        1.22          1.270        0.000
  YS02001605           JUNCTION        1.18          1.180        0.000
  YS02001607           JUNCTION        0.72          0.680        0.000
  YS02001610           JUNCTION        0.75          0.680        0.000
  YS02001613           JUNCTION        0.72          0.700        0.000
  YS02001616           JUNCTION        0.67          0.610        0.000
  YS02001619           JUNCTION        0.66          0.610        0.000
  YS02001622           JUNCTION        0.66          0.620        0.000
  YS02001625           JUNCTION        0.84          0.780        0.000
  YS02001629           JUNCTION        0.62          0.470        0.000
  YS02001633           JUNCTION        0.86          1.060        0.000
  YS02001641           JUNCTION        0.80          0.948        0.152
  YS02001644           JUNCTION        0.78          0.920        0.000
  YS02001647           JUNCTION        0.58          0.752        0.148
  YS02001649           JUNCTION        0.70          0.979        0.071
  YS02001652           JUNCTION        0.51          0.834        0.296
  YS02001655           JUNCTION        0.38          0.744        0.456
  YS02001658           JUNCTION        0.20          0.675        0.625
  YS02001661           JUNCTION        0.01          0.367        1.023
  YS02001748           JUNCTION        0.15          0.761        0.429
  YS02001751           JUNCTION        0.27          0.759        0.441
  YS02001754           JUNCTION        0.43          0.781        0.369
  YS02001757           JUNCTION        0.76          1.039        0.171
  YS02001759           JUNCTION        0.67          1.041        0.169
  YS02001762           JUNCTION        0.64          1.029        0.121
  YS02001765           JUNCTION        0.60          0.992        0.108
  YS02001767           JUNCTION        0.57          0.961        0.069
  YS02001770           JUNCTION        0.54          0.920        0.000
  YS02001774           JUNCTION        0.62          0.997        0.053
  YS02001779           JUNCTION        0.43          0.680        0.000
  YS02001783           JUNCTION        0.48          0.467        1.133
  YS02001784           JUNCTION        0.46          0.345        1.145
  YS02001786           JUNCTION        0.36          0.102        1.328
  YS02001882           JUNCTION        0.43          0.675        0.155
  YS02001884           JUNCTION        0.44          0.697        0.173
  YS02001887           JUNCTION        0.47          0.782        0.168
  YS02001890           JUNCTION        0.48          0.760        0.000
  YS02001895           JUNCTION        0.42          0.569        0.181
  YS02001898           JUNCTION        0.41          0.534        0.206
  YS02001901           JUNCTION        0.46          0.742        0.128
  YS02001904           JUNCTION        0.45          0.657        0.193
  YS02001907           JUNCTION        0.70          0.950        0.000
  YS02001910           JUNCTION        0.51          0.970        0.130
  YS02001915           JUNCTION        0.43          0.910        0.090
  YS02001918           JUNCTION        0.35          0.810        0.000
  YS02001920           JUNCTION        0.36          1.137        0.003
  YS02001923           JUNCTION        0.05          0.820        0.000
  YS02001926           JUNCTION        0.09          0.900        0.000
  YS02001929           JUNCTION        0.01          0.780        0.000
  YS02006553           JUNCTION        0.71          0.978        0.212
  YS02006556           JUNCTION        0.60          0.922        0.428
  YS02006558           JUNCTION        0.59          0.918        0.482
  YS02006561           JUNCTION        0.31          0.150        1.000
  YS02163301           JUNCTION        0.85          0.911        0.119
  YS02163601           JUNCTION        0.89          1.080        0.000
  YS02164001           JUNCTION        0.81          0.950        0.150
  
  
  *********************
  Node Flooding Summary
  *********************
  
  Flooding refers to all water that overflows a node, whether it ponds or not.
  --------------------------------------------------------------------------
                                                             Total   Maximum
                                 Maximum   Time of Max       Flood    Ponded
                        Hours       Rate    Occurrence      Volume     Depth
  Node                 Flooded       LPS   days hr:min    10^6 ltr    Meters
  --------------------------------------------------------------------------
  WS02006249              1.01    106.18      0  02:07       0.256     0.000
  WS02006252              0.01    245.63      0  00:00       0.000     0.000
  WS02006256              1.46    293.19      0  00:00       0.474     0.000
  YS02001580              0.01     92.63      0  02:05       0.000     0.000
  YS02001583              0.01     26.48      0  02:05       0.000     0.000
  YS02001586              0.41    343.33      0  02:15       0.253     0.000
  YS02001590              0.01      0.23      0  02:07       0.000     0.000
  YS02001600              0.01      0.10      0  02:14       0.000     0.000
  YS02001601              0.59   1121.08      0  02:14       1.138     0.000
  YS02001602              0.50     61.95      0  02:28       0.100     0.000
  YS02001605              0.01      2.91      0  02:04       0.000     0.000
  YS02001607              0.01     13.61      0  02:04       0.000     0.000
  YS02001610              0.43    620.07      0  02:15       0.514     0.000
  YS02001613              0.01      7.90      0  02:04       0.000     0.000
  YS02001616              0.01     21.10      0  02:04       0.000     0.000
  YS02001619              0.01     57.28      0  02:04       0.000     0.000
  YS02001622              0.01      0.55      0  02:07       0.000     0.000
  YS02001625              0.41   1253.30      0  02:14       0.961     0.000
  YS02001629              0.09    135.97      0  02:12       0.027     0.000
  YS02001633              0.01      0.26      0  02:14       0.000     0.000
  YS02001644              0.17    848.75      0  02:14       0.304     0.000
  YS02001770              0.01      6.89      0  02:14       0.000     0.000
  YS02001779              0.15    439.88      0  02:14       0.130     0.000
  YS02001890              0.14    257.90      0  02:13       0.066     0.000
  YS02001907              0.29   1681.51      0  02:13       0.968     0.000
  YS02001918              0.01     93.79      0  02:09       0.001     0.000
  YS02001923              0.01    115.91      0  02:09       0.000     0.000
  YS02001926              0.01    139.15      0  02:09       0.001     0.000
  YS02001929              0.01    251.59      0  02:09       0.001     0.000
  YS02163601              0.01      0.24      0  02:14       0.000     0.000
  
  
  **********************
  Storage Volume Summary
  **********************
  
  ------------------------------------------------------------------------------------------------
                         Average    Avg   Evap  Exfil     Maximum    Max    Time of Max    Maximum
                          Volume   Pcnt   Pcnt   Pcnt      Volume   Pcnt     Occurrence    Outflow
  Storage Unit           1000 m³   Full   Loss   Loss     1000 m³   Full    days hr:min        LPS
  ------------------------------------------------------------------------------------------------
  CC-storage               2.452   38.2    0.0    0.0       4.720   73.6       0  02:36    1783.53
  JK-storage               0.117   40.0    0.0    0.0       0.213   72.9       0  02:29    2300.00
  
  
  ***********************
  Outfall Loading Summary
  ***********************
  
  -----------------------------------------------------------
                         Flow       Avg       Max       Total
                         Freq      Flow      Flow      Volume
  Outfall Node           Pcnt       LPS       LPS    10^6 ltr
  -----------------------------------------------------------
  CC-1                  33.88    683.00    683.00       3.878
  CC-2                  31.94    683.00    683.00       3.689
  JK-1                  15.79   1000.00   1000.00       2.078
  JK-2                   0.25   1000.00   1000.00       0.048
  WSC                   99.93    209.20    555.10       4.007
  -----------------------------------------------------------
  System                36.36   3575.20   3366.23      13.700
  
  
  ********************
  Link Flow Summary
  ********************
  
  -----------------------------------------------------------------------------
                                 Maximum  Time of Max   Maximum    Max/    Max/
                                  |Flow|   Occurrence   |Veloc|    Full    Full
  Link                 Type          LPS  days hr:min     m/sec    Flow   Depth
  -----------------------------------------------------------------------------
  1                    CONDUIT    555.10     0  02:33      2.83    0.19    0.30
  WS02003060WS02003069 CONDUIT    553.35     0  02:55      1.64    0.22    0.34
  WS02003066WSF200     CONDUIT    536.83     0  02:54      2.85    0.09    0.22
  WS02003067WS02003066 CONDUIT    536.78     0  02:54      1.21    0.17    0.42
  WS02003069WS02003072 CONDUIT    553.42     0  02:56      1.37    0.27    0.39
  WS02003072WS02003073 CONDUIT    553.33     0  02:57      1.44    1.20    0.37
  WS02004401WS02004402 CONDUIT    538.40     0  02:47      1.23    0.65    0.86
  WS02004402WS02004403 CONDUIT    538.73     0  02:47      1.24    0.77    0.88
  WS02004403WS02004404 CONDUIT    537.95     0  02:47      1.17    0.39    0.93
  WS02004404WS02004405 CONDUIT    537.92     0  02:52      1.43    5.27    0.96
  WS02004405WS02004406 CONDUIT    538.23     0  02:48      1.39    1.06    0.96
  WS02004406WS02004407 CONDUIT    537.61     0  02:52      1.04    0.24    0.63
  WS02004407WS02004409 CONDUIT    537.32     0  02:52      1.55    0.19    0.48
  WS02004409WS02004410 CONDUIT    537.10     0  02:48      1.01    0.69    0.67
  WS02004410WS02004411 CONDUIT    537.03     0  02:53      0.94    0.73    0.69
  WS02004411WS02004412 CONDUIT    536.90     0  02:53      0.92    0.76    0.69
  WS02004412WS02004413 CONDUIT    536.99     0  02:54      0.87    0.36    0.78
  WS02004413WS02003067 CONDUIT    536.72     0  02:54      1.11    0.23    0.59
  WS02006109WS02006110 CONDUIT    548.10     0  03:36      1.09    1.05    1.00
  WS02006110WS02006113 CONDUIT    557.18     0  02:08      1.34    0.51    0.78
  WS02006111WS02006112 CONDUIT    543.80     0  03:03      1.96    0.26    0.67
  WS02006112WS02006115 CONDUIT    545.01     0  02:20      0.80    0.32    0.87
  WS02006113WS02006111 CONDUIT    560.27     0  03:07      2.46    0.67    0.46
  WS02006115WS02006116 CONDUIT    540.75     0  02:47      1.19    0.69    0.76
  WS02006116WS02004401 CONDUIT    539.68     0  02:47      1.22    0.74    0.84
  WS02006228WS02006109 CONDUIT    545.71     0  03:36      1.09    2.38    1.00
  WS02006229WS02006228 CONDUIT    544.95     0  03:36      1.14    1.80    1.00
  WS02006230WS02006229 CONDUIT    544.81     0  03:36      1.42   12.12    1.00
  WS02006231WS02006230 CONDUIT    570.66     0  03:35      1.55    8.66    1.00
  WS02006232WS02006231 CONDUIT    570.46     0  03:35      1.48    1.20    1.00
  WS02006234WS02006232 CONDUIT    569.37     0  03:35      1.48    1.15    1.00
  WS02006235WS02006234 CONDUIT    565.22     0  03:35      1.47    5.96    1.00
  WS02006238WS02006235 CONDUIT    416.76     0  03:07      1.48    0.93    1.00
  WS02006239WS02006238 CONDUIT    417.34     0  03:07      1.10    1.34    1.00
  WS02006240WS02006239 CONDUIT    417.22     0  03:07      1.24    1.31    1.00
  WS02006242WS02006240 CONDUIT    415.60     0  03:07      1.13    1.65    1.00
  WS02006243WS02006242 CONDUIT    415.66     0  03:07      1.40    0.89    1.00
  WS02006245WS02006243 CONDUIT    415.08     0  03:07      1.45    1.23    1.00
  WS02006247WS02006245 CONDUIT    414.17     0  03:07      1.43    3.28    1.00
  WS02006248WS02006247 CONDUIT    413.71     0  03:07      1.44    0.90    1.00
  WS02006249WS02006248 CONDUIT    413.81     0  03:07      1.36    2.27    1.00
  WS02006251WS02006249 CONDUIT    459.02     0  00:00      1.99    1.32    1.00
  WS02006252WS02006251 CONDUIT    405.95     0  02:07     25.30    1.49    1.00
  WS02006256WS02006235 CONDUIT    288.91     0  00:00      4.23    3.06    1.00
  WSF200WS02003060     CONDUIT    537.03     0  02:55      2.06    0.12    0.28
  YS02001580YS02001583 CONDUIT     99.41     0  02:05      0.62    0.39    1.00
  YS02001583YS02001586 CONDUIT    150.03     0  02:04      0.63    0.23    1.00
  YS02001586YS02001590 CONDUIT    318.35     0  02:14      1.25    0.56    1.00
  YS02001590YS02001593 CONDUIT    318.01     0  02:14      1.12    2.00    1.00
  YS02001593YS02001596 CONDUIT    317.98     0  02:28      1.74    0.50    1.00
  YS02001596YS02001600 CONDUIT    318.05     0  02:10      1.24    0.62    1.00
  YS02001600YS02001601 CONDUIT    318.01     0  02:14      1.12    0.55    1.00
  YS02001601YS02001602 CONDUIT    511.51     0  02:04      1.81    1.85    1.00
  YS02001602YS02001605 CONDUIT    511.65     0  02:04      1.81   10.83    1.00
  YS02001605YS02001607 CONDUIT    511.63     0  02:04      1.81    2.81    1.00
  YS02001607YS02001610 CONDUIT    517.72     0  02:04      0.66    0.49    1.00
  YS02001610YS02001613 CONDUIT    522.23     0  02:04      0.66    0.60    1.00
  YS02001613YS02001616 CONDUIT    523.92     0  02:04      0.67    0.45    1.00
  YS02001616YS02001619 CONDUIT    504.51     0  02:04      0.67    0.88    1.00
  YS02001619YS02001622 CONDUIT    924.22     0  02:13      1.18    1.36    1.00
  YS02001622YS02001625 CONDUIT    927.28     0  02:04      1.18    0.49    1.00
  YS02001625YS02001629 CONDUIT    927.64     0  02:04      1.19    0.44    1.00
  YS02001629YS02163301 CONDUIT    923.67     0  02:07      1.18    1.14    1.00
  YS02001633YS02163601 CONDUIT   1350.10     0  02:07      1.72    1.42    1.00
  YS02001641YS02001644 CONDUIT   1346.90     0  02:07      1.71    4.35    1.00
  YS02001644YS02001647 CONDUIT   1735.75     0  02:07      2.22    1.02    1.00
  YS02001647YS02001649 CONDUIT   1741.05     0  02:07      2.31    0.92    1.00
  YS02001649YS02001757 CONDUIT   1884.64     0  02:07      2.42    1.14    1.00
  YS02001652YS02001649 CONDUIT    823.32     0  02:14      1.05    0.41    1.00
  YS02001655YS02001652 CONDUIT    827.26     0  02:14      1.29    0.40    1.00
  YS02001658YS02001655 CONDUIT    830.93     0  02:14      1.89    0.35    1.00
  YS02001661YS02001658 CONDUIT    833.15     0  02:14      2.26    0.33    1.00
  YS02001664YS02001661 CONDUIT    840.61     0  02:13      2.23    0.26    0.77
  YS02001745YS02001748 CONDUIT    581.41     0  02:09      2.12    0.22    0.89
  YS02001748YS02001751 CONDUIT    525.37     0  02:14      1.66    0.27    1.00
  YS02001751YS02001754 CONDUIT    522.80     0  02:14      1.43    0.25    1.00
  YS02001754YS02001757 CONDUIT    519.97     0  02:14      0.66    0.21    1.00
  YS02001757CaochengTiaoxuchi CONDUIT   3164.42     0  02:11      4.03    1.37    1.00
  YS02001759YS02001757 CONDUIT   1298.28     0  02:12      1.65    0.92    1.00
  YS02001762YS02001759 CONDUIT    693.35     0  02:10      0.88    0.80    1.00
  YS02001765YS02001762 CONDUIT    693.58     0  02:10      0.88    0.65    1.00
  YS02001767YS02001765 CONDUIT    694.50     0  02:10      0.88    0.87    1.00
  YS02001770YS02001767 CONDUIT    694.36     0  02:10      0.88    2.75    1.00
  YS02001774YS02001770 CONDUIT    439.25     0  02:14      0.56    0.28    1.00
  YS02001779YS02001774 CONDUIT    440.26     0  02:14      0.56    0.22    1.00
  YS02001783YS02001784 CONDUIT   1162.56     0  02:13      2.31    1.60    1.00
  YS02001784YS02001785 CONDUIT   1164.15     0  02:13      2.32    2.71    1.00
  YS02001786YS02001788 CONDUIT   1164.29     0  02:13      2.48    2.24    0.89
  YS02001788YS02001790 CONDUIT   1172.26     0  02:13      2.71    0.86    0.84
  YS02001790YS02001791 CONDUIT   1290.00     0  02:13      3.44    1.40    0.71
  YS02001791YS02001793 CONDUIT   1260.69     0  02:12      6.78    0.54    0.41
  YS02001793JiankangQianchi CONDUIT   1295.41     0  02:12      2.59    0.10    0.63
  YS02001882YS02001884 CONDUIT     35.69     0  02:06      0.11    0.04    1.00
  YS02001884YS02001887 CONDUIT     72.24     0  02:06      0.09    0.10    1.00
  YS02001887YS02001890 CONDUIT    771.50     0  02:13      0.98    1.32    1.00
  YS02001890YS02001895 CONDUIT    517.32     0  02:16      0.66    0.24    1.00
  YS02001895YS02001898 CONDUIT    517.04     0  02:15      0.66    0.90    1.00
  YS02001898YS02001901 CONDUIT    517.05     0  02:16      0.66    0.33    1.00
  YS02001901YS02001904 CONDUIT    517.38     0  02:14      0.66    0.80    1.00
  YS02001904YS02001907 CONDUIT    516.88     0  02:15      0.66    0.18    1.00
  YS02001907YS02006553 CONDUIT    798.83     0  02:28      0.89    0.94    1.00
  YS02001910YS02001907 CONDUIT   1313.58     0  02:13      1.67    0.74    1.00
  YS02001915YS02001910 CONDUIT   1313.48     0  02:13      1.67    0.65    1.00
  YS02001918YS02001915 CONDUIT    456.85     0  02:13      0.58    0.25    1.00
  YS02001920YS02001918 CONDUIT    456.44     0  02:13      0.66    0.44    1.00
  YS02001923YS02001920 CONDUIT    453.54     0  02:13      0.69    0.20    1.00
  YS02001926YS02001923 CONDUIT    450.07     0  02:13      0.96    0.64    1.00
  YS02001929YS02001926 CONDUIT    447.80     0  02:13      1.12    0.21    1.00
  YS02006553YS02006556 CONDUIT    798.05     0  02:27      1.02    0.68    1.00
  YS02006556YS02006558 CONDUIT    800.91     0  02:28      1.02    0.63    1.00
  YS02006558YS02006561 CONDUIT   1163.24     0  02:13      4.11    2.57    1.00
  YS02006561YS02001783 CONDUIT   1162.51     0  02:12      2.31    0.60    1.00
  YS02163301YS02001633 CONDUIT    925.10     0  02:07      1.18    0.87    1.00
  YS02163601YS02164001 CONDUIT   1349.80     0  02:07      1.72    1.20    1.00
  YS02164001YS02001641 CONDUIT   1347.96     0  02:07      1.72    1.84    1.00
  CC-R1                PUMP       683.00     0  00:00              1.00
  CC-R2                PUMP       683.00     0  00:00              1.00
  CC-S1                PUMP       200.00     0  00:00              1.00
  CC-S2                PUMP       200.00     0  00:00              1.00
  JK-R1                PUMP      1000.00     0  00:00              1.00
  JK-R2                PUMP      1000.00     0  00:00              1.00
  JK-S                 PUMP       300.00     0  00:00              1.00
  
  
  ***************************
  Flow Classification Summary
  ***************************
  
  -------------------------------------------------------------------------------------
                      Adjusted    ---------- Fraction of Time in Flow Class ---------- 
                       /Actual         Up    Down  Sub   Sup   Up    Down  Norm  Inlet 
  Conduit               Length    Dry  Dry   Dry   Crit  Crit  Crit  Crit  Ltd   Ctrl  
  -------------------------------------------------------------------------------------
  1                       1.00   0.00  0.00  0.00  0.00  1.00  0.00  0.00  0.69  0.00
  WS02003060WS02003069    1.00   0.00  0.00  0.00  0.97  0.03  0.00  0.00  0.76  0.00
  WS02003066WSF200        1.00   0.06  0.00  0.00  0.00  0.94  0.00  0.00  0.79  0.00
  WS02003067WS02003066    1.00   0.05  0.01  0.00  0.94  0.00  0.00  0.00  0.00  0.00
  WS02003069WS02003072    1.00   0.00  0.00  0.00  0.99  0.01  0.00  0.00  0.78  0.00
  WS02003072WS02003073    1.00   0.00  0.00  0.00  0.00  0.00  0.00  1.00  0.00  0.00
  WS02004401WS02004402    1.00   0.02  0.00  0.00  0.98  0.00  0.00  0.00  0.00  0.00
  WS02004402WS02004403    1.00   0.02  0.00  0.00  0.98  0.00  0.00  0.00  0.00  0.00
  WS02004403WS02004404    1.00   0.00  0.03  0.00  0.97  0.00  0.00  0.00  0.00  0.00
  WS02004404WS02004405    1.00   0.00  0.00  0.00  1.00  0.00  0.00  0.00  0.00  0.00
  WS02004405WS02004406    1.00   0.00  0.00  0.00  1.00  0.00  0.00  0.00  0.00  0.00
  WS02004406WS02004407    1.00   0.00  0.03  0.00  0.96  0.00  0.00  0.00  0.00  0.00
  WS02004407WS02004409    1.00   0.04  0.00  0.00  0.95  0.01  0.00  0.00  0.96  0.00
  WS02004409WS02004410    1.00   0.04  0.00  0.00  0.96  0.00  0.00  0.00  0.00  0.00
  WS02004410WS02004411    1.00   0.04  0.00  0.00  0.96  0.00  0.00  0.00  0.00  0.00
  WS02004411WS02004412    1.00   0.04  0.00  0.00  0.96  0.00  0.00  0.00  0.00  0.00
  WS02004412WS02004413    1.00   0.04  0.00  0.00  0.96  0.00  0.00  0.00  0.00  0.00
  WS02004413WS02003067    1.00   0.04  0.01  0.00  0.00  0.00  0.95  0.00  0.00  0.00
  WS02006109WS02006110    1.00   0.00  0.01  0.00  0.98  0.00  0.01  0.00  0.00  0.00
  WS02006110WS02006113    1.00   0.01  0.01  0.00  0.98  0.00  0.00  0.00  0.00  0.00
  WS02006111WS02006112    1.00   0.02  0.00  0.00  0.98  0.00  0.00  0.00  0.98  0.00
  WS02006112WS02006115    1.00   0.02  0.00  0.00  0.97  0.00  0.00  0.00  0.00  0.00
  WS02006113WS02006111    1.00   0.02  0.00  0.00  0.00  0.98  0.00  0.00  0.10  0.00
  WS02006115WS02006116    1.00   0.02  0.00  0.00  0.97  0.00  0.00  0.01  0.00  0.00
  WS02006116WS02004401    1.00   0.02  0.00  0.00  0.98  0.00  0.00  0.00  0.00  0.00
  WS02006228WS02006109    1.00   0.00  0.00  0.00  1.00  0.00  0.00  0.00  0.00  0.00
  WS02006229WS02006228    1.00   0.00  0.00  0.00  0.99  0.00  0.00  0.01  0.00  0.00
  WS02006230WS02006229    1.00   0.00  0.00  0.00  0.99  0.00  0.00  0.01  0.00  0.00
  WS02006231WS02006230    1.00   0.00  0.00  0.00  0.21  0.00  0.78  0.00  0.00  0.00
  WS02006232WS02006231    1.00   0.00  0.00  0.00  0.99  0.00  0.01  0.00  0.00  0.00
  WS02006234WS02006232    1.00   0.00  0.00  0.00  1.00  0.00  0.00  0.00  0.53  0.00
  WS02006235WS02006234    1.00   0.00  0.00  0.00  0.43  0.00  0.57  0.00  0.00  0.00
  WS02006238WS02006235    1.00   0.00  0.00  0.00  1.00  0.00  0.00  0.00  0.00  0.00
  WS02006239WS02006238    1.00   0.00  0.00  0.00  1.00  0.00  0.00  0.00  0.63  0.00
  WS02006240WS02006239    1.00   0.00  0.00  0.00  0.34  0.00  0.00  0.66  0.01  0.00
  WS02006242WS02006240    1.00   0.00  0.00  0.00  1.00  0.00  0.00  0.00  0.00  0.00
  WS02006243WS02006242    1.00   0.00  0.00  0.00  0.99  0.00  0.00  0.00  0.72  0.00
  WS02006245WS02006243    1.00   0.00  0.00  0.00  0.38  0.00  0.00  0.62  0.00  0.00
  WS02006247WS02006245    1.00   0.00  0.00  0.00  0.99  0.00  0.00  0.00  0.00  0.00
  WS02006248WS02006247    1.00   0.00  0.00  0.00  0.99  0.00  0.00  0.00  0.12  0.00
  WS02006249WS02006248    1.00   0.00  0.00  0.00  0.27  0.00  0.73  0.00  0.00  0.00
  WS02006251WS02006249    1.00   0.00  0.00  0.00  1.00  0.00  0.00  0.00  0.73  0.00
  WS02006252WS02006251    1.00   0.00  0.72  0.00  0.13  0.00  0.16  0.00  0.00  0.00
  WS02006256WS02006235    1.00   0.00  0.00  0.00  1.00  0.00  0.00  0.00  0.00  0.00
  WSF200WS02003060        1.00   0.00  0.06  0.00  0.60  0.33  0.00  0.00  0.70  0.00
  YS02001580YS02001583    1.00   0.26  0.56  0.00  0.19  0.00  0.00  0.00  0.65  0.00
  YS02001583YS02001586    1.00   0.41  0.35  0.00  0.24  0.00  0.00  0.00  0.65  0.00
  YS02001586YS02001590    1.00   0.13  0.00  0.00  0.43  0.04  0.00  0.40  0.38  0.00
  YS02001590YS02001593    1.00   0.13  0.01  0.00  0.11  0.00  0.76  0.00  0.00  0.00
  YS02001593YS02001596    1.00   0.14  0.00  0.00  0.13  0.01  0.00  0.73  0.02  0.00
  YS02001596YS02001600    1.00   0.14  0.00  0.00  0.19  0.01  0.00  0.66  0.05  0.00
  YS02001600YS02001601    1.00   0.13  0.01  0.00  0.86  0.00  0.00  0.00  0.61  0.00
  YS02001601YS02001602    1.00   0.13  0.01  0.00  0.86  0.00  0.00  0.00  0.00  0.00
  YS02001602YS02001605    1.00   0.14  0.00  0.00  0.86  0.00  0.00  0.00  0.00  0.00
  YS02001605YS02001607    1.00   0.14  0.00  0.00  0.86  0.00  0.00  0.00  0.00  0.00
  YS02001607YS02001610    1.00   0.13  0.01  0.00  0.86  0.00  0.00  0.00  0.02  0.00
  YS02001610YS02001613    1.00   0.13  0.00  0.00  0.87  0.00  0.00  0.00  0.01  0.00
  YS02001613YS02001616    1.00   0.13  0.00  0.00  0.87  0.00  0.00  0.00  0.01  0.00
  YS02001616YS02001619    1.00   0.13  0.00  0.00  0.87  0.00  0.00  0.00  0.00  0.00
  YS02001619YS02001622    1.00   0.13  0.00  0.00  0.87  0.00  0.00  0.00  0.28  0.00
  YS02001622YS02001625    1.00   0.13  0.00  0.00  0.87  0.00  0.00  0.00  0.05  0.00
  YS02001625YS02001629    1.00   0.13  0.05  0.00  0.15  0.00  0.67  0.00  0.00  0.00
  YS02001629YS02163301    1.00   0.16  0.01  0.00  0.83  0.00  0.00  0.00  0.00  0.00
  YS02001633YS02163601    1.00   0.00  0.01  0.00  0.99  0.00  0.00  0.00  0.15  0.00
  YS02001641YS02001644    1.00   0.00  0.01  0.00  0.99  0.00  0.00  0.00  0.00  0.00
  YS02001644YS02001647    1.00   0.00  0.18  0.00  0.82  0.00  0.00  0.00  0.00  0.00
  YS02001647YS02001649    1.00   0.00  0.18  0.00  0.52  0.30  0.00  0.00  0.56  0.00
  YS02001649YS02001757    1.00   0.00  0.00  0.00  0.67  0.33  0.00  0.00  0.46  0.00
  YS02001652YS02001649    1.00   0.00  0.00  0.00  0.96  0.04  0.00  0.00  0.76  0.00
  YS02001655YS02001652    1.00   0.00  0.00  0.00  0.17  0.01  0.00  0.82  0.04  0.00
  YS02001658YS02001655    1.00   0.00  0.14  0.00  0.65  0.20  0.00  0.00  0.70  0.00
  YS02001661YS02001658    1.00   0.14  0.00  0.00  0.49  0.37  0.00  0.00  0.71  0.00
  YS02001664YS02001661    1.00   0.13  0.00  0.00  0.78  0.09  0.00  0.00  0.85  0.00
  YS02001745YS02001748    1.00   0.00  0.00  0.00  0.09  0.01  0.00  0.90  0.04  0.00
  YS02001748YS02001751    1.00   0.00  0.00  0.00  0.82  0.18  0.00  0.00  0.75  0.00
  YS02001751YS02001754    1.00   0.00  0.00  0.00  0.15  0.01  0.00  0.85  0.02  0.00
  YS02001754YS02001757    1.00   0.00  0.00  0.00  1.00  0.00  0.00  0.00  0.84  0.00
  YS02001757CaochengTiaoxuchi    1.00   0.00  0.00  0.00  1.00  0.00  0.00  0.00  0.83  0.00
  YS02001759YS02001757    1.00   0.00  0.00  0.00  1.00  0.00  0.00  0.00  0.61  0.00
  YS02001762YS02001759    1.00   0.00  0.00  0.00  1.00  0.00  0.00  0.00  0.05  0.00
  YS02001765YS02001762    1.00   0.00  0.00  0.00  1.00  0.00  0.00  0.00  0.75  0.00
  YS02001767YS02001765    1.00   0.00  0.00  0.00  1.00  0.00  0.00  0.00  0.00  0.00
  YS02001770YS02001767    1.00   0.00  0.00  0.00  1.00  0.00  0.00  0.00  0.00  0.00
  YS02001774YS02001770    1.00   0.00  0.13  0.00  0.70  0.00  0.16  0.00  0.03  0.00
  YS02001779YS02001774    1.00   0.00  0.00  0.00  1.00  0.00  0.00  0.00  0.78  0.00
  YS02001783YS02001784    1.00   0.00  0.19  0.00  0.81  0.00  0.00  0.00  0.55  0.00
  YS02001784YS02001785    1.00   0.00  0.00  0.00  1.00  0.00  0.00  0.00  0.18  0.00
  YS02001786YS02001788    1.00   0.00  0.00  0.00  0.79  0.21  0.00  0.00  0.00  0.00
  YS02001788YS02001790    1.00   0.00  0.00  0.00  0.22  0.78  0.00  0.00  0.81  0.00
  YS02001790YS02001791    1.00   0.00  0.00  0.00  0.01  0.99  0.00  0.00  0.16  0.00
  YS02001791YS02001793    1.00   0.00  0.00  0.00  0.00  1.00  0.00  0.00  0.01  0.00
  YS02001793JiankangQianchi    1.00   0.00  0.00  0.00  0.96  0.04  0.00  0.00  0.98  0.00
  YS02001882YS02001884    1.00   0.15  0.01  0.00  0.83  0.00  0.00  0.00  0.00  0.00
  YS02001884YS02001887    1.00   0.06  0.05  0.00  0.89  0.00  0.00  0.00  0.00  0.00
  YS02001887YS02001890    1.00   0.00  0.00  0.00  0.97  0.00  0.03  0.00  0.00  0.00
  YS02001890YS02001895    1.00   0.00  0.17  0.00  0.83  0.00  0.00  0.00  0.00  0.00
  YS02001895YS02001898    1.00   0.17  0.00  0.00  0.81  0.00  0.02  0.00  0.00  0.00
  YS02001898YS02001901    1.00   0.17  0.00  0.00  0.83  0.00  0.00  0.00  0.01  0.00
  YS02001901YS02001904    1.00   0.17  0.00  0.00  0.83  0.00  0.00  0.00  0.00  0.00
  YS02001904YS02001907    1.00   0.00  0.17  0.00  0.83  0.00  0.00  0.00  0.00  0.00
  YS02001907YS02006553    1.00   0.00  0.02  0.00  0.98  0.00  0.00  0.00  0.00  0.00
  YS02001910YS02001907    1.00   0.00  0.00  0.00  0.97  0.00  0.00  0.03  0.12  0.00
  YS02001915YS02001910    1.00   0.00  0.00  0.00  0.96  0.04  0.00  0.00  0.17  0.00
  YS02001918YS02001915    1.00   0.00  0.01  0.00  0.98  0.02  0.00  0.00  0.75  0.00
  YS02001920YS02001918    1.00   0.00  0.01  0.00  0.99  0.00  0.00  0.00  0.00  0.00
  YS02001923YS02001920    1.00   0.00  0.00  0.00  1.00  0.00  0.00  0.00  0.93  0.00
  YS02001926YS02001923    1.00   0.00  0.07  0.00  0.05  0.00  0.87  0.00  0.00  0.00
  YS02001929YS02001926    1.00   0.00  0.13  0.00  0.87  0.00  0.00  0.00  0.83  0.00
  YS02006553YS02006556    1.00   0.01  0.00  0.00  0.99  0.00  0.00  0.00  0.03  0.00
  YS02006556YS02006558    1.00   0.00  0.00  0.00  1.00  0.00  0.00  0.00  0.00  0.00
  YS02006558YS02006561    1.00   0.19  0.00  0.00  0.05  0.76  0.00  0.00  0.19  0.00
  YS02006561YS02001783    1.00   0.19  0.00  0.00  0.08  0.73  0.00  0.00  0.69  0.00
  YS02163301YS02001633    1.00   0.00  0.16  0.00  0.84  0.00  0.00  0.00  0.00  0.00
  YS02163601YS02164001    1.00   0.00  0.08  0.00  0.92  0.00  0.00  0.00  0.00  0.00
  YS02164001YS02001641    1.00   0.01  0.07  0.00  0.92  0.00  0.00  0.00  0.06  0.00
  
  
  *************************
  Conduit Surcharge Summary
  *************************
  
  ----------------------------------------------------------------------------
                                                           Hours        Hours 
                         --------- Hours Full --------   Above Full   Capacity
  Conduit                Both Ends  Upstream  Dnstream   Normal Flow   Limited
  ----------------------------------------------------------------------------
  WS02003072WS02003073        0.01      0.01      0.01      1.05         0.01
  WS02004404WS02004405        0.01      0.01      0.01      2.03         0.01
  WS02004405WS02004406        0.01      0.01      0.01      0.93         0.01
  WS02006109WS02006110        0.98      0.98      1.62      1.01         0.01
  WS02006110WS02006113        0.01      0.01      1.59      0.01         0.01
  WS02006111WS02006112        0.01      0.01      1.71      0.01         0.01
  WS02006112WS02006115        0.01      0.01      0.94      0.01         0.01
  WS02006228WS02006109        1.57      1.62      1.57      1.86         1.57
  WS02006229WS02006228        1.55      1.58      1.55      1.80         1.55
  WS02006230WS02006229        1.66      1.73      1.66      2.39         1.66
  WS02006231WS02006230        0.99      0.99      1.03      2.24         0.01
  WS02006232WS02006231        1.02      1.02      1.62      1.03         0.01
  WS02006234WS02006232        1.54      1.54      1.62      1.02         1.02
  WS02006235WS02006234        1.11      1.12      1.57      2.16         0.01
  WS02006238WS02006235        1.58      1.58      1.61      0.01         0.01
  WS02006239WS02006238        1.54      1.54      1.59      1.55         1.39
  WS02006240WS02006239        1.53      1.53      1.53      1.56         1.30
  WS02006242WS02006240        1.52      1.52      1.55      1.61         0.01
  WS02006243WS02006242        1.51      1.51      1.53      0.01         0.01
  WS02006245WS02006243        1.50      1.50      1.51      0.59         0.68
  WS02006247WS02006245        1.50      1.50      1.50      1.77         1.50
  WS02006248WS02006247        1.49      1.49      1.50      0.01         0.01
  WS02006249WS02006248        1.49      1.49      1.49      1.76         0.01
  WS02006251WS02006249        1.49      1.49      1.49      1.63         1.47
  WS02006252WS02006251        1.66      1.66      1.66      1.66         0.01
  WS02006256WS02006235        2.19      2.20      2.96      1.46         0.01
  YS02001580YS02001583        0.53      0.53      0.58      0.01         0.01
  YS02001583YS02001586        0.54      0.54      0.66      0.01         0.01
  YS02001586YS02001590        0.67      0.67      0.73      0.01         0.01
  YS02001590YS02001593        0.74      0.74      0.75      0.77         0.01
  YS02001593YS02001596        0.75      0.75      0.84      0.01         0.01
  YS02001596YS02001600        0.89      0.89      1.00      0.01         0.01
  YS02001600YS02001601        1.06      1.06      1.33      0.01         0.01
  YS02001601YS02001602        1.22      1.22      1.36      0.99         0.01
  YS02001602YS02001605        1.18      1.18      1.22      2.21         0.01
  YS02001605YS02001607        1.14      1.18      1.14      1.29         1.14
  YS02001607YS02001610        0.72      0.72      0.75      0.01         0.01
  YS02001610YS02001613        0.72      0.72      0.75      0.01         0.01
  YS02001613YS02001616        0.67      0.67      0.72      0.01         0.01
  YS02001616YS02001619        0.66      0.66      0.67      0.01         0.01
  YS02001619YS02001622        0.66      0.66      0.66      0.74         0.64
  YS02001622YS02001625        0.66      0.66      0.84      0.01         0.01
  YS02001625YS02001629        0.62      0.62      0.84      0.01         0.01
  YS02001629YS02163301        0.83      0.83      0.85      0.07         0.14
  YS02001633YS02163601        0.86      0.86      0.89      0.30         0.28
  YS02001641YS02001644        0.78      0.80      0.78      1.40         0.77
  YS02001644YS02001647        0.58      0.58      0.78      0.02         0.01
  YS02001647YS02001649        0.58      0.58      0.70      0.01         0.01
  YS02001649YS02001757        0.70      0.70      0.76      0.07         0.03
  YS02001652YS02001649        0.54      0.54      0.70      0.01         0.01
  YS02001655YS02001652        0.38      0.38      0.51      0.01         0.01
  YS02001658YS02001655        0.20      0.20      0.38      0.01         0.01
  YS02001661YS02001658        0.01      0.01      0.20      0.01         0.01
  YS02001664YS02001661        0.01      0.01      0.07      0.01         0.01
  YS02001745YS02001748        0.01      0.01      0.15      0.01         0.01
  YS02001748YS02001751        0.18      0.18      0.27      0.01         0.01
  YS02001751YS02001754        0.27      0.27      0.43      0.01         0.01
  YS02001754YS02001757        0.47      0.47      0.76      0.01         0.01
  YS02001757CaochengTiaoxuchi        0.76      0.76      1.27      0.29         0.29
  YS02001759YS02001757        0.67      0.67      0.76      0.01         0.01
  YS02001762YS02001759        0.64      0.64      0.67      0.01         0.01
  YS02001765YS02001762        0.60      0.60      0.64      0.01         0.01
  YS02001767YS02001765        0.57      0.57      0.60      0.01         0.02
  YS02001770YS02001767        0.56      0.56      0.57      0.46         0.39
  YS02001774YS02001770        0.54      0.54      0.62      0.01         0.01
  YS02001779YS02001774        0.43      0.43      0.62      0.01         0.01
  YS02001783YS02001784        0.46      0.48      0.46      0.63         0.46
  YS02001784YS02001785        0.36      0.46      0.36      0.85         0.36
  YS02001786YS02001788        0.01      0.36      0.01      0.73         0.01
  YS02001790YS02001791        0.01      0.01      0.01      0.45         0.01
  YS02001793JiankangQianchi        0.01      0.01      7.61      0.01         0.01
  YS02001882YS02001884        0.43      0.43      0.44      0.01         0.01
  YS02001884YS02001887        0.46      0.46      0.47      0.01         0.01
  YS02001887YS02001890        0.48      0.48      0.49      0.09         0.01
  YS02001890YS02001895        0.42      0.42      0.51      0.01         0.01
  YS02001895YS02001898        0.41      0.41      0.42      0.01         0.01
  YS02001898YS02001901        0.42      0.42      0.46      0.01         0.01
  YS02001901YS02001904        0.45      0.45      0.46      0.01         0.01
  YS02001904YS02001907        0.45      0.45      0.71      0.01         0.01
  YS02001907YS02006553        0.86      0.86      0.92      0.01         0.01
  YS02001910YS02001907        0.51      0.51      0.70      0.01         0.01
  YS02001915YS02001910        0.43      0.43      0.51      0.01         0.01
  YS02001918YS02001915        0.34      0.34      0.43      0.01         0.01
  YS02001920YS02001918        0.34      0.34      0.36      0.01         0.01
  YS02001923YS02001920        0.31      0.31      0.36      0.01         0.01
  YS02001926YS02001923        0.05      0.05      0.09      0.01         0.01
  YS02001929YS02001926        0.01      0.01      0.09      0.01         0.01
  YS02006553YS02006556        0.60      0.60      0.71      0.01         0.01
  YS02006556YS02006558        0.65      0.65      0.72      0.01         0.01
  YS02006558YS02006561        0.38      0.59      0.38      0.81         0.38
  YS02006561YS02001783        0.31      0.31      0.48      0.01         0.01
  YS02163301YS02001633        0.85      0.85      0.88      0.01         0.01
  YS02163601YS02164001        0.81      0.81      0.89      0.07         0.01
  YS02164001YS02001641        0.80      0.81      0.80      0.63         0.59
  
  
  ***************
  Pumping Summary
  ***************
  
  ---------------------------------------------------------------------------------------------------------
                                                  Min       Avg       Max     Total     Power    % Time Off
                        Percent   Number of      Flow      Flow      Flow    Volume     Usage    Pump Curve
  Pump                 Utilized   Start-Ups       LPS       LPS       LPS  10^6 ltr     Kw-hr    Low   High
  ---------------------------------------------------------------------------------------------------------
  CC-R1                   19.92           2      0.00    683.00    683.00     3.877     71.76    0.0   24.9
  CC-R2                   18.95           2      0.00    683.00    683.00     3.688     68.26    0.0   26.2
  CC-S1                   22.56           2      0.00    200.00    200.00     1.286      7.34    0.0    0.0
  CC-S2                   20.99           2      0.00    200.00    200.00     1.196      6.81    0.0    0.0
  JK-R1                    7.29           5      0.00   1000.00   1000.00     2.079     19.77    0.0    0.0
  JK-R2                    0.17           1      0.00   1000.00   1000.00     0.047      0.36    0.0    0.0
  JK-S                    18.41           3      0.00    300.00    300.00     1.574     25.65    0.0    0.0
  

  Analysis begun on:  Thu Jan 16 14:24:00 2025
  Analysis ended on:  Thu Jan 16 14:24:01 2025
  Total elapsed time: 00:00:01