
  EPA STORM WATER MANAGEMENT MODEL - VERSION 5.2 (Build 5.2.4)
  PYSWMM TOOLKIT API - VERSION v1.0 (2023-11-27)
  ------------------------------------------------------------

  WARNING 04: minimum elevation drop used for Conduit WS02004404WS02004405
  WARNING 03: negative offset ignored for Link YS02001904YS02001907
  
  ****************
  Analysis Options
  ****************
  Flow Units ............... LPS
  Process Models:
    Rainfall/Runoff ........ YES
    RDII ................... NO
    Snowmelt ............... NO
    Groundwater ............ NO
    Flow Routing ........... YES
    Ponding Allowed ........ NO
    Water Quality .......... NO
  Infiltration Method ...... HORTON
  Flow Routing Method ...... DYNWAVE
  Surcharge Method ......... EXTRAN
  Starting Date ............ 08/28/2015 08:00:00
  Ending Date .............. 08/28/2015 16:00:00
  Antecedent Dry Days ...... 8.0
  Report Time Step ......... 00:01:00
  Wet Time Step ............ 00:01:00
  Dry Time Step ............ 00:01:00
  Routing Time Step ........ 30.00 sec
  Variable Time Step ....... YES
  Maximum Trials ........... 8
  Number of Threads ........ 4
  Head Tolerance ........... 0.001500 m
  
  
  **************************        Volume         Depth
  Runoff Quantity Continuity     hectare-m            mm
  **************************     ---------       -------
  Total Precipitation ......         2.381        71.775
  Evaporation Loss .........         0.000         0.000
  Infiltration Loss ........         0.104         3.136
  Surface Runoff ...........         2.244        67.654
  Final Storage ............         0.033         0.998
  Continuity Error (%) .....        -0.019
  
  
  **************************        Volume        Volume
  Flow Routing Continuity        hectare-m      10^6 ltr
  **************************     ---------     ---------
  Dry Weather Inflow .......         0.025         0.248
  Wet Weather Inflow .......         2.244        22.438
  Groundwater Inflow .......         0.000         0.000
  RDII Inflow ..............         0.000         0.000
  External Inflow ..........         0.083         0.825
  External Outflow .........         1.588        15.880
  Flooding Loss ............         0.784         7.845
  Evaporation Loss .........         0.000         0.000
  Exfiltration Loss ........         0.000         0.000
  Initial Stored Volume ....         0.243         2.431
  Final Stored Volume ......         0.225         2.252
  Continuity Error (%) .....        -0.129
  
  
  *************************
  Highest Continuity Errors
  *************************
  Node YS02001884 (4.75%)
  Node YS02001583 (-3.70%)
  
  
  ***************************
  Time-Step Critical Elements
  ***************************
  Link WS02004404WS02004405 (28.91%)
  Link YS02001791YS02001793 (16.42%)
  Link WS02006252WS02006251 (13.17%)
  Link WS02006238WS02006235 (9.73%)
  Link WS02006235WS02006234 (8.79%)
  
  
  ********************************
  Highest Flow Instability Indexes
  ********************************
  Link WS02006113WS02006111 (34)
  Link WS02006238WS02006235 (30)
  Link WS02006252WS02006251 (30)
  Link WS02006111WS02006112 (26)
  Link WS02006235WS02006234 (23)
  
  
  *********************************
  Most Frequent Nonconverging Nodes
  *********************************
  Node CC-1 (9.69%)
  Node CC-2 (9.69%)
  Node JK-1 (9.69%)
  Node JK-2 (9.69%)
  Node WSC (9.69%)
  
  
  *************************
  Routing Time Step Summary
  *************************
  Minimum Time Step           :     0.01 sec
  Average Time Step           :     3.20 sec
  Maximum Time Step           :     6.43 sec
  % of Time in Steady State   :     0.00
  Average Iterations per Step :     3.20
  % of Steps Not Converging   :     9.69
  Time Step Frequencies       :
     30.000 - 13.228 sec      :     0.00 %
     13.228 -  5.833 sec      :    21.78 %
      5.833 -  2.572 sec      :    29.26 %
      2.572 -  1.134 sec      :    32.34 %
      1.134 -  0.500 sec      :    16.62 %
  
  
  ***************************
  Subcatchment Runoff Summary
  ***************************
  
  ------------------------------------------------------------------------------------------------------------------------------
                            Total      Total      Total      Total     Imperv       Perv      Total       Total     Peak  Runoff
                           Precip      Runon       Evap      Infil     Runoff     Runoff     Runoff      Runoff   Runoff   Coeff
  Subcatchment                 mm         mm         mm         mm         mm         mm         mm    10^6 ltr      LPS
  ------------------------------------------------------------------------------------------------------------------------------
  sub60                     71.78       0.00       0.00       1.86      61.96       6.76      68.72        0.90   596.95   0.957
  sub61                     71.78       0.00       0.00       2.70      58.44       9.50      67.95        1.25   830.71   0.947
  sub62                     71.78       0.00       0.00       1.24      64.75       4.51      69.25        1.90  1175.61   0.965
  sub63                     71.78       0.00       0.00       5.03      49.99      15.79      65.78        1.49   956.01   0.917
  sub64                     71.78       0.00       0.00       2.54      59.80       8.23      68.03        1.63   970.85   0.948
  sub65                     71.78       0.00       0.00       2.19      61.19       7.14      68.33        1.88  1086.26   0.952
  sub66                     71.78       0.00       0.00       6.27      49.88      14.55      64.43        3.00  1490.28   0.898
  sub67                     71.78       0.00       0.00       1.19      64.79       4.56      69.35        1.29   884.99   0.966
  sub68                     71.78       0.00       0.00       2.24      60.54       7.81      68.35        1.88  1205.07   0.952
  sub69                     71.78       0.00       0.00       2.03      60.89       8.74      69.63        2.58  1443.05   0.970
  sub70                     71.78       0.00       0.00       6.81      47.20      17.59      64.79        1.87   839.30   0.903
  sub71                     71.78       0.00       0.00       1.27      64.70       4.47      69.17        1.81  1046.31   0.964
  sub72                     71.78       0.00       0.00       1.14      65.34       3.89      69.23        0.95   513.23   0.965
  
  
  ******************
  Node Depth Summary
  ******************
  
  ---------------------------------------------------------------------------------
                                 Average  Maximum  Maximum  Time of Max    Reported
                                   Depth    Depth      HGL   Occurrence   Max Depth
  Node                 Type       Meters   Meters   Meters  days hr:min      Meters
  ---------------------------------------------------------------------------------
  WS02003060           JUNCTION     0.21     0.38     5.32     0  03:06        0.38
  WS02003066           JUNCTION     0.17     0.30     5.85     0  03:05        0.30
  WS02003067           JUNCTION     0.46     0.70     6.02     0  03:05        0.70
  WS02003069           JUNCTION     0.23     0.43     5.01     0  03:06        0.43
  WS02003072           JUNCTION     0.29     0.50     4.87     0  03:07        0.50
  WS02003073           JUNCTION     0.16     0.30     4.36     0  03:12        0.30
  WS02004401           JUNCTION     0.56     0.85     6.85     0  03:02        0.85
  WS02004402           JUNCTION     0.59     0.88     6.84     0  03:03        0.88
  WS02004403           JUNCTION     0.61     0.89     6.82     0  03:03        0.89
  WS02004404           JUNCTION     0.68     0.96     6.81     0  03:03        0.96
  WS02004405           JUNCTION     0.68     0.96     6.81     0  03:03        0.96
  WS02004406           JUNCTION     0.69     0.96     6.79     0  03:03        0.96
  WS02004407           JUNCTION     0.15     0.30     6.61     0  03:03        0.30
  WS02004409           JUNCTION     0.35     0.67     6.44     0  03:04        0.67
  WS02004410           JUNCTION     0.37     0.68     6.40     0  03:04        0.68
  WS02004411           JUNCTION     0.39     0.69     6.37     0  03:04        0.69
  WS02004412           JUNCTION     0.42     0.70     6.34     0  03:04        0.70
  WS02004413           JUNCTION     0.57     0.86     6.33     0  03:05        0.86
  WS02006109           JUNCTION     0.63     1.05     7.67     0  03:49        0.98
  WS02006110           JUNCTION     0.63     1.03     7.62     0  03:49        0.93
  WS02006111           JUNCTION     0.16     0.29     6.99     0  02:59        0.29
  WS02006112           JUNCTION     0.71     1.07     6.96     0  02:57        1.06
  WS02006113           JUNCTION     0.25     0.46     7.35     0  03:09        0.46
  WS02006115           JUNCTION     0.44     0.75     6.89     0  03:02        0.75
  WS02006116           JUNCTION     0.53     0.83     6.87     0  03:02        0.83
  WS02006228           JUNCTION     0.63     1.13     7.78     0  02:00        1.06
  WS02006229           JUNCTION     0.60     1.09     7.78     0  03:49        1.07
  WS02006230           JUNCTION     0.61     1.23     7.97     0  03:49        1.19
  WS02006231           JUNCTION     0.41     0.95     8.07     0  03:49        0.93
  WS02006232           JUNCTION     0.55     1.14     8.17     0  02:13        1.14
  WS02006234           JUNCTION     0.48     1.14     8.30     0  02:04        1.11
  WS02006235           JUNCTION     0.53     1.45     8.61     0  02:02        1.19
  WS02006238           JUNCTION     0.56     1.43     8.57     0  02:02        1.21
  WS02006239           JUNCTION     0.52     2.03     9.24     0  02:02        1.22
  WS02006240           JUNCTION     0.49     1.74     9.03     0  02:02        1.20
  WS02006242           JUNCTION     0.55     1.55     8.82     0  02:02        1.28
  WS02006243           JUNCTION     0.47     1.48     8.90     0  02:02        1.15
  WS02006245           JUNCTION     0.46     1.20     8.68     0  02:03        1.17
  WS02006247           JUNCTION     0.47     1.19     8.69     0  02:03        1.19
  WS02006248           JUNCTION     0.44     1.10     8.69     0  02:03        1.10
  WS02006249           JUNCTION     0.46     1.09     8.69     0  02:03        1.09
  WS02006251           JUNCTION     0.46     2.08     9.75     0  02:03        1.30
  WS02006252           JUNCTION     0.32     1.50     9.74     0  00:00        0.86
  WS02006256           JUNCTION     1.27     2.35     9.28     0  00:00        2.35
  WSF200               JUNCTION     0.14     0.29     5.52     0  03:05        0.29
  YS02001580           JUNCTION     0.13     1.05     9.59     0  02:08        0.78
  YS02001583           JUNCTION     0.16     1.00     9.50     0  02:08        0.82
  YS02001586           JUNCTION     0.28     1.13     9.30     0  02:08        1.13
  YS02001590           JUNCTION     0.39     1.38     9.25     0  02:46        1.37
  YS02001593           JUNCTION     0.32     1.35     9.21     0  02:46        1.29
  YS02001596           JUNCTION     0.45     1.70     9.12     0  02:46        1.65
  YS02001600           JUNCTION     0.56     1.87     9.00     0  02:46        1.86
  YS02001601           JUNCTION     0.76     2.06     8.90     0  02:05        2.06
  YS02001602           JUNCTION     0.66     1.87     8.77     0  02:11        1.87
  YS02001605           JUNCTION     0.61     1.78     8.68     0  02:13        1.78
  YS02001607           JUNCTION     0.57     1.65     8.49     0  02:16        1.64
  YS02001610           JUNCTION     0.61     1.68     8.48     0  02:11        1.68
  YS02001613           JUNCTION     0.57     1.66     8.50     0  02:46        1.66
  YS02001616           JUNCTION     0.50     1.61     8.52     0  02:20        1.61
  YS02001619           JUNCTION     0.48     1.61     8.54     0  02:18        1.61
  YS02001622           JUNCTION     0.47     1.58     8.49     0  02:15        1.58
  YS02001625           JUNCTION     0.72     1.78     8.38     0  02:11        1.78
  YS02001629           JUNCTION     0.62     1.85     8.40     0  02:13        1.85
  YS02001633           JUNCTION     0.70     2.08     8.53     0  02:13        2.08
  YS02001641           JUNCTION     0.67     2.10     8.54     0  02:13        2.10
  YS02001644           JUNCTION     0.66     1.92     8.35     0  02:13        1.92
  YS02001647           JUNCTION     0.44     1.85     8.46     0  02:13        1.85
  YS02001649           JUNCTION     0.51     2.00     8.39     0  02:24        2.00
  YS02001652           JUNCTION     0.38     1.84     8.44     0  02:24        1.83
  YS02001655           JUNCTION     0.29     1.64     8.49     0  02:22        1.63
  YS02001658           JUNCTION     0.21     1.42     8.56     0  02:15        1.38
  YS02001661           JUNCTION     0.21     1.19     8.60     0  02:22        1.17
  YS02001664           JUNCTION     0.08     0.64     8.56     0  02:24        0.63
  YS02001745           JUNCTION     0.11     0.89     8.41     0  02:24        0.89
  YS02001748           JUNCTION     0.20     1.40     8.47     0  02:18        1.31
  YS02001751           JUNCTION     0.25     1.50     8.38     0  02:24        1.50
  YS02001754           JUNCTION     0.33     1.75     8.35     0  02:24        1.74
  YS02001757           JUNCTION     0.53     2.07     8.33     0  02:24        2.07
  YS02001759           JUNCTION     0.46     2.10     8.47     0  02:18        2.10
  YS02001762           JUNCTION     0.45     2.13     8.53     0  02:18        2.13
  YS02001765           JUNCTION     0.43     2.10     8.55     0  02:18        2.10
  YS02001767           JUNCTION     0.42     2.03     8.52     0  02:18        2.03
  YS02001770           JUNCTION     0.43     1.95     8.44     0  02:18        1.95
  YS02001774           JUNCTION     0.50     2.05     8.47     0  02:18        2.05
  YS02001779           JUNCTION     0.32     1.68     8.37     0  02:18        1.68
  YS02001783           JUNCTION     0.33     1.24     7.39     0  02:15        1.23
  YS02001784           JUNCTION     0.34     1.12     7.19     0  02:22        1.12
  YS02001786           JUNCTION     0.29     0.88     6.91     0  02:24        0.87
  YS02001788           JUNCTION     0.21     0.62     6.60     0  02:24        0.62
  YS02001790           JUNCTION     0.25     0.73     6.37     0  02:24        0.72
  YS02001791           JUNCTION     0.15     0.44     5.91     0  02:24        0.44
  YS02001793           JUNCTION     0.08     0.28     5.12     0  02:17        0.27
  YS02001882           JUNCTION     0.41     1.83     8.55     0  02:15        1.83
  YS02001884           JUNCTION     0.49     1.93     8.55     0  02:15        1.93
  YS02001887           JUNCTION     0.57     2.00     8.54     0  02:13        2.00
  YS02001890           JUNCTION     0.60     1.81     8.32     0  02:13        1.81
  YS02001895           JUNCTION     0.38     1.68     8.43     0  02:15        1.68
  YS02001898           JUNCTION     0.38     1.70     8.44     0  02:15        1.70
  YS02001901           JUNCTION     0.49     1.73     8.34     0  02:15        1.73
  YS02001904           JUNCTION     0.47     1.64     8.27     0  02:23        1.64
  YS02001907           JUNCTION     0.78     1.96     8.25     0  02:15        1.96
  YS02001910           JUNCTION     0.59     1.94     8.45     0  02:16        1.92
  YS02001915           JUNCTION     0.41     1.87     8.59     0  02:16        1.84
  YS02001918           JUNCTION     0.23     1.74     8.81     0  02:16        1.52
  YS02001920           JUNCTION     0.31     1.88     8.89     0  02:16        1.60
  YS02001923           JUNCTION     0.18     1.69     8.95     0  02:16        1.35
  YS02001926           JUNCTION     0.21     1.53     8.98     0  02:16        1.19
  YS02001929           JUNCTION     0.13     1.46     9.16     0  02:16        0.95
  YS02006553           JUNCTION     0.78     1.98     8.27     0  02:18        1.98
  YS02006556           JUNCTION     0.76     2.13     8.44     0  02:13        2.13
  YS02006558           JUNCTION     0.80     2.10     8.36     0  02:13        2.10
  YS02006561           JUNCTION     0.21     0.93     7.59     0  02:15        0.90
  YS02163301           JUNCTION     0.64     2.03     8.55     0  02:13        2.03
  YS02163601           JUNCTION     0.73     2.08     8.48     0  02:13        2.08
  YS02164001           JUNCTION     0.66     2.10     8.56     0  02:13        2.10
  CC-1                 OUTFALL      0.00     0.00     0.00     0  00:00        0.00
  CC-2                 OUTFALL      0.00     0.00     0.00     0  00:00        0.00
  JK-1                 OUTFALL      0.00     0.00     0.00     0  00:00        0.00
  JK-2                 OUTFALL      0.00     0.00     0.00     0  00:00        0.00
  WSC                  OUTFALL      0.16     0.30     0.97     0  03:12        0.30
  CC-storage           STORAGE      0.94     1.86     7.36     0  02:46        1.86
  JK-storage           STORAGE      2.31     4.24     5.04     0  02:16        4.19
  
  
  *******************
  Node Inflow Summary
  *******************
  
  -------------------------------------------------------------------------------------------------
                                  Maximum  Maximum                  Lateral       Total        Flow
                                  Lateral    Total  Time of Max      Inflow      Inflow     Balance
                                   Inflow   Inflow   Occurrence      Volume      Volume       Error
  Node                 Type           LPS      LPS  days hr:min    10^6 ltr    10^6 ltr     Percent
  -------------------------------------------------------------------------------------------------
  WS02003060           JUNCTION     16.53   553.74     0  03:05       0.471        4.53       0.043
  WS02003066           JUNCTION      0.00   536.99     0  03:05           0        4.06       0.030
  WS02003067           JUNCTION      0.00   536.91     0  03:05           0        4.06       0.098
  WS02003069           JUNCTION      0.32   553.92     0  03:06     0.00912        4.53       0.076
  WS02003072           JUNCTION      0.00   553.61     0  03:07           0        4.53       0.137
  WS02003073           JUNCTION      1.82   555.28     0  03:11      0.0519        4.58       0.107
  WS02004401           JUNCTION      0.00   539.53     0  03:02           0        4.16       0.239
  WS02004402           JUNCTION      0.00   538.96     0  03:02           0        4.15       0.242
  WS02004403           JUNCTION      0.00   538.77     0  03:03           0        4.14       0.238
  WS02004404           JUNCTION      0.16   538.38     0  03:03     0.00462        4.13       0.203
  WS02004405           JUNCTION      0.04   538.24     0  03:03     0.00109        4.13       0.290
  WS02004406           JUNCTION      0.00   538.49     0  03:03           0        4.11       0.499
  WS02004407           JUNCTION      0.00   537.92     0  03:03           0        4.09       0.021
  WS02004409           JUNCTION      0.00   537.62     0  03:03           0        4.09       0.052
  WS02004410           JUNCTION      0.00   537.43     0  03:04           0        4.09       0.095
  WS02004411           JUNCTION      0.00   537.20     0  03:04           0        4.09       0.124
  WS02004412           JUNCTION      0.00   537.20     0  03:04           0        4.08       0.169
  WS02004413           JUNCTION      0.00   537.12     0  03:04           0        4.07       0.312
  WS02006109           JUNCTION      1.23   550.15     0  03:49      0.0351        4.21       0.228
  WS02006110           JUNCTION      0.00   550.98     0  03:49           0         4.2       0.151
  WS02006111           JUNCTION      0.00   559.96     0  03:05           0        4.19       0.018
  WS02006112           JUNCTION      0.00   543.54     0  02:59           0        4.19       0.470
  WS02006113           JUNCTION      0.00   557.86     0  03:49           0        4.19       0.036
  WS02006115           JUNCTION      0.00   549.19     0  02:57           0        4.17       0.151
  WS02006116           JUNCTION      0.00   541.74     0  03:02           0        4.16       0.097
  WS02006228           JUNCTION      0.00   548.53     0  03:49           0        4.18       0.098
  WS02006229           JUNCTION      0.00   548.48     0  03:49           0        4.18       0.104
  WS02006230           JUNCTION     10.28   580.63     0  03:48       0.293        4.19       0.146
  WS02006231           JUNCTION      0.00   570.23     0  03:48           0        3.89      -0.067
  WS02006232           JUNCTION      0.00   569.16     0  03:48           0         3.9       0.172
  WS02006234           JUNCTION      0.00   565.07     0  03:48           0        3.89      -0.140
  WS02006235           JUNCTION      0.00   558.32     0  03:48           0        3.94       0.148
  WS02006238           JUNCTION      0.00   417.48     0  03:14           0        2.72      -0.131
  WS02006239           JUNCTION      0.00   417.46     0  03:14           0         2.7      -0.095
  WS02006240           JUNCTION      0.00   416.18     0  03:14           0        2.67      -0.059
  WS02006242           JUNCTION      0.00   415.87     0  03:14           0        2.65      -0.039
  WS02006243           JUNCTION      0.00   415.28     0  03:14           0        2.64      -0.064
  WS02006245           JUNCTION      0.00   415.08     0  03:14           0        2.63       0.167
  WS02006247           JUNCTION      0.00   414.24     0  03:14           0        2.63      -0.030
  WS02006248           JUNCTION      0.00   414.23     0  03:14           0        2.63       0.038
  WS02006249           JUNCTION      0.00   459.02     0  00:00           0        2.95       0.166
  WS02006251           JUNCTION      0.08   407.36     0  02:03     0.00219        2.95      -0.054
  WS02006252           JUNCTION      0.00   400.00     0  00:00           0        2.95       0.005
  WS02006256           JUNCTION      0.00   300.00     0  00:00           0        1.81      -0.138
  WSF200               JUNCTION      0.00   537.04     0  03:05           0        4.06       0.008
  YS02001580           JUNCTION      0.00    74.60     0  02:08           0     0.00417       0.251
  YS02001583           JUNCTION      0.00   103.81     0  02:08           0      0.0158      -3.567
  YS02001586           JUNCTION    839.30   839.33     0  02:26        1.87        1.88       0.051
  YS02001590           JUNCTION      0.00   318.10     0  02:18           0        1.44      -0.023
  YS02001593           JUNCTION      0.00   318.10     0  02:18           0        1.44       0.008
  YS02001596           JUNCTION      0.00   318.13     0  02:18           0        1.44      -0.010
  YS02001600           JUNCTION      0.00   318.10     0  02:18           0        1.44       0.023
  YS02001601           JUNCTION   1443.05  1760.55     0  02:25        2.58        4.01       0.024
  YS02001602           JUNCTION      0.00   489.80     0  02:08           0        2.45       0.017
  YS02001605           JUNCTION      0.00   490.07     0  02:08           0        2.32       0.023
  YS02001607           JUNCTION      0.00   489.61     0  02:08           0        2.31       0.087
  YS02001610           JUNCTION      0.00   832.97     0  02:26           0         2.6       0.091
  YS02001613           JUNCTION      0.00   496.74     0  02:26           0        2.08       0.081
  YS02001616           JUNCTION      0.00   497.05     0  02:26           0        2.08       0.016
  YS02001619           JUNCTION   1490.28  1490.28     0  02:26           3         4.8      -0.003
  YS02001622           JUNCTION      0.00  1000.75     0  02:25           0         4.5       0.001
  YS02001625           JUNCTION      0.00  1434.23     0  02:26           0        4.79       0.209
  YS02001629           JUNCTION      0.00   891.54     0  02:11           0        3.57       0.008
  YS02001633           JUNCTION   1086.46  1229.10     0  02:12        1.89        5.15       0.065
  YS02001641           JUNCTION      0.00  1231.40     0  02:12           0        4.85       0.058
  YS02001644           JUNCTION    970.88  1555.46     0  02:25        1.64        6.48       0.052
  YS02001647           JUNCTION      0.00  1564.90     0  02:13           0        5.82       0.005
  YS02001649           JUNCTION      0.00  1747.57     0  02:13           0        7.32       0.002
  YS02001652           JUNCTION      0.00   971.41     0  02:25           0         1.5      -0.063
  YS02001655           JUNCTION      0.15   971.34     0  02:25     0.00439         1.5       0.032
  YS02001658           JUNCTION      0.00   971.14     0  02:25           0        1.49      -0.024
  YS02001661           JUNCTION      0.00   971.22     0  02:25           0        1.49       0.008
  YS02001664           JUNCTION    956.01   956.01     0  02:25        1.49        1.49      -0.009
  YS02001745           JUNCTION    596.95   596.95     0  02:25       0.903       0.903       0.127
  YS02001748           JUNCTION      0.04   599.64     0  02:25     0.00128       0.904      -0.214
  YS02001751           JUNCTION      0.01   600.04     0  02:25    0.000313       0.909       0.054
  YS02001754           JUNCTION      0.26   600.38     0  02:25     0.00741       0.921      -0.139
  YS02001757           JUNCTION      0.00  2952.39     0  02:24           0        11.1       0.003
  YS02001759           JUNCTION    830.75  1257.46     0  02:25        1.25        2.87      -0.014
  YS02001762           JUNCTION      0.00   673.87     0  02:20           0        1.62      -0.006
  YS02001765           JUNCTION      0.00   673.73     0  02:19           0        1.62      -0.005
  YS02001767           JUNCTION      0.54   673.25     0  02:19      0.0152        1.62      -0.001
  YS02001770           JUNCTION   1175.77  1175.77     0  02:25         1.9        1.94      -0.033
  YS02001774           JUNCTION      0.00   752.62     0  02:25           0       0.355       0.316
  YS02001779           JUNCTION      0.01   753.77     0  02:25    0.000142       0.312      -0.005
  YS02001783           JUNCTION      0.00  1166.94     0  02:24           0        4.42       0.004
  YS02001784           JUNCTION      1.06  1168.36     0  02:24      0.0302        4.45       0.010
  YS02001786           JUNCTION      0.06  1167.73     0  02:24      0.0016        4.45       0.016
  YS02001788           JUNCTION      0.07  1168.04     0  02:23     0.00202        4.45       0.007
  YS02001790           JUNCTION      0.15  1176.70     0  02:23     0.00442        4.45       0.035
  YS02001791           JUNCTION      0.00  1289.51     0  02:20           0        4.45      -0.042
  YS02001793           JUNCTION      0.00  1264.87     0  02:24           0        4.45       0.003
  YS02001882           JUNCTION      0.00    28.92     0  02:12           0      0.0136       2.567
  YS02001884           JUNCTION      0.00    36.39     0  02:13           0        0.05       4.984
  YS02001887           JUNCTION    885.44   885.44     0  02:25         1.3        1.34       0.313
  YS02001890           JUNCTION      0.00   886.69     0  02:25           0         1.3       0.383
  YS02001895           JUNCTION      0.00   519.29     0  02:27           0        1.18       0.138
  YS02001898           JUNCTION      0.00   517.79     0  02:27           0        1.18      -0.005
  YS02001901           JUNCTION      0.00   517.52     0  02:27           0        1.18       0.258
  YS02001904           JUNCTION      0.00   517.76     0  02:27           0        1.18       0.216
  YS02001907           JUNCTION      0.00  2123.42     0  02:25           0        4.02       0.441
  YS02001910           JUNCTION      0.00  1569.36     0  02:25           0        2.84       0.251
  YS02001915           JUNCTION   1046.33  1568.78     0  02:25        1.81        2.87       0.048
  YS02001918           JUNCTION      0.00   526.03     0  02:25           0        1.07      -0.015
  YS02001920           JUNCTION      2.87   526.32     0  02:25      0.0818        1.06       0.079
  YS02001923           JUNCTION      0.04   522.92     0  02:25     0.00107       0.969      -0.029
  YS02001926           JUNCTION      0.05   522.01     0  02:25     0.00149       0.957      -0.001
  YS02001929           JUNCTION    513.23   513.23     0  02:26       0.952       0.952      -0.037
  YS02006553           JUNCTION      0.00   802.09     0  02:39           0        2.56       0.455
  YS02006556           JUNCTION      0.00   802.69     0  02:39           0        2.57       0.302
  YS02006558           JUNCTION   1205.95  1205.95     0  02:25        1.91        4.45       0.073
  YS02006561           JUNCTION      0.00  1166.71     0  02:24           0        4.42      -0.001
  YS02163301           JUNCTION      0.00   891.55     0  02:11           0        3.57       0.044
  YS02163601           JUNCTION      0.11  1229.50     0  02:12     0.00313        4.85       0.100
  YS02164001           JUNCTION      0.00  1230.08     0  02:12           0        4.85       0.045
  CC-1                 OUTFALL       0.00   683.00     0  00:00           0        4.51       0.000
  CC-2                 OUTFALL       0.00   683.00     0  00:00           0        4.18       0.000
  JK-1                 OUTFALL       0.00  1000.00     0  00:00           0        2.57       0.000
  JK-2                 OUTFALL       0.00  1000.00     0  00:00           0      0.0484       0.000
  WSC                  OUTFALL       0.00   555.23     0  03:12           0        4.57       0.000
  CC-storage           STORAGE       0.00  2953.14     0  02:24           0        13.3      -0.135
  JK-storage           STORAGE       0.00  1301.56     0  02:25           0         4.6       0.082
  
  
  **********************
  Node Surcharge Summary
  **********************
  
  Surcharging occurs when water rises above the top of the highest conduit.
  ---------------------------------------------------------------------
                                               Max. Height   Min. Depth
                                   Hours       Above Crown    Below Rim
  Node                 Type      Surcharged         Meters       Meters
  ---------------------------------------------------------------------
  WS02006109           JUNCTION        1.90          0.231        1.589
  WS02006110           JUNCTION        1.19          0.120        1.730
  WS02006112           JUNCTION        1.14          0.073        1.607
  WS02006228           JUNCTION        1.89          0.299        1.901
  WS02006229           JUNCTION        1.92          0.289        2.161
  WS02006230           JUNCTION        1.19          0.147        1.423
  WS02006231           JUNCTION        1.22          0.237        1.293
  WS02006232           JUNCTION        1.96          0.436        1.044
  WS02006234           JUNCTION        1.30          0.420        0.820
  WS02006235           JUNCTION        1.91          0.740        0.550
  WS02006238           JUNCTION        1.93          0.707        0.723
  WS02006239           JUNCTION        1.84          1.290        0.000
  WS02006240           JUNCTION        1.83          1.032        0.358
  WS02006242           JUNCTION        1.83          0.820        0.000
  WS02006243           JUNCTION        1.82          0.770        0.000
  WS02006245           JUNCTION        1.81          0.489        0.361
  WS02006247           JUNCTION        1.81          0.482        0.278
  WS02006248           JUNCTION        1.80          0.380        0.000
  WS02006249           JUNCTION        1.80          0.390        0.000
  WS02006251           JUNCTION        1.22          1.051        0.129
  WS02006252           JUNCTION        1.96          1.100        0.000
  WS02006256           JUNCTION        3.30          2.050        0.000
  YS02001580           JUNCTION        0.68          0.450        0.000
  YS02001583           JUNCTION        0.70          0.363        0.137
  YS02001586           JUNCTION        0.84          0.510        0.000
  YS02001590           JUNCTION        0.93          0.735        0.015
  YS02001593           JUNCTION        0.93          0.725        0.115
  YS02001596           JUNCTION        1.05          0.970        0.100
  YS02001600           JUNCTION        1.21          1.190        0.000
  YS02001601           JUNCTION        1.58          1.440        0.000
  YS02001602           JUNCTION        1.46          1.270        0.000
  YS02001605           JUNCTION        1.41          1.180        0.000
  YS02001607           JUNCTION        0.92          0.646        0.034
  YS02001610           JUNCTION        0.95          0.680        0.000
  YS02001613           JUNCTION        0.92          0.663        0.037
  YS02001616           JUNCTION        0.88          0.610        0.000
  YS02001619           JUNCTION        0.87          0.610        0.000
  YS02001622           JUNCTION        0.86          0.584        0.036
  YS02001625           JUNCTION        1.04          0.780        0.000
  YS02001629           JUNCTION        0.79          0.470        0.000
  YS02001633           JUNCTION        1.07          1.060        0.000
  YS02001641           JUNCTION        1.02          1.100        0.000
  YS02001644           JUNCTION        0.98          0.920        0.000
  YS02001647           JUNCTION        0.80          0.849        0.051
  YS02001649           JUNCTION        0.91          0.999        0.051
  YS02001652           JUNCTION        0.74          0.811        0.319
  YS02001655           JUNCTION        0.57          0.644        0.556
  YS02001658           JUNCTION        0.31          0.419        0.881
  YS02001661           JUNCTION        0.07          0.123        1.267
  YS02001748           JUNCTION        0.24          0.318        0.872
  YS02001751           JUNCTION        0.44          0.497        0.703
  YS02001754           JUNCTION        0.66          0.697        0.453
  YS02001757           JUNCTION        0.98          1.069        0.141
  YS02001759           JUNCTION        0.89          1.103        0.107
  YS02001762           JUNCTION        0.87          1.131        0.019
  YS02001765           JUNCTION        0.83          1.100        0.000
  YS02001767           JUNCTION        0.80          1.030        0.000
  YS02001770           JUNCTION        0.78          0.920        0.000
  YS02001774           JUNCTION        0.85          1.050        0.000
  YS02001779           JUNCTION        0.63          0.680        0.000
  YS02001783           JUNCTION        0.60          0.445        1.155
  YS02001784           JUNCTION        0.57          0.322        1.168
  YS02001786           JUNCTION        0.45          0.076        1.354
  YS02001882           JUNCTION        0.53          0.830        0.000
  YS02001884           JUNCTION        0.54          0.870        0.000
  YS02001887           JUNCTION        0.58          0.950        0.000
  YS02001890           JUNCTION        0.60          0.760        0.000
  YS02001895           JUNCTION        0.52          0.679        0.071
  YS02001898           JUNCTION        0.51          0.671        0.069
  YS02001901           JUNCTION        0.57          0.727        0.143
  YS02001904           JUNCTION        0.56          0.638        0.212
  YS02001907           JUNCTION        0.88          0.950        0.000
  YS02001910           JUNCTION        0.63          0.938        0.162
  YS02001915           JUNCTION        0.53          0.870        0.130
  YS02001918           JUNCTION        0.44          0.740        0.070
  YS02001920           JUNCTION        0.45          0.884        0.256
  YS02001923           JUNCTION        0.12          0.481        0.339
  YS02001926           JUNCTION        0.15          0.531        0.369
  YS02001929           JUNCTION        0.01          0.462        0.318
  YS02006553           JUNCTION        0.90          0.982        0.208
  YS02006556           JUNCTION        0.74          1.091        0.259
  YS02006558           JUNCTION        0.72          0.997        0.403
  YS02006561           JUNCTION        0.40          0.128        1.022
  YS02163301           JUNCTION        1.05          1.030        0.000
  YS02163601           JUNCTION        1.11          1.080        0.000
  YS02164001           JUNCTION        1.02          1.100        0.000
  
  
  *********************
  Node Flooding Summary
  *********************
  
  Flooding refers to all water that overflows a node, whether it ponds or not.
  --------------------------------------------------------------------------
                                                             Total   Maximum
                                 Maximum   Time of Max       Flood    Ponded
                        Hours       Rate    Occurrence      Volume     Depth
  Node                 Flooded       LPS   days hr:min    10^6 ltr    Meters
  --------------------------------------------------------------------------
  WS02006239              0.01     45.47      0  02:02       0.000     0.000
  WS02006242              0.01     36.57      0  02:02       0.000     0.000
  WS02006243              0.01     54.21      0  02:02       0.000     0.000
  WS02006248              0.01     52.00      0  02:03       0.000     0.000
  WS02006249              1.22    116.25      0  02:03       0.309     0.000
  WS02006252              0.01    245.63      0  00:00       0.000     0.000
  WS02006256              1.68    293.19      0  00:00       0.556     0.000
  YS02001580              0.01     47.13      0  02:08       0.000     0.000
  YS02001586              0.53    521.60      0  02:26       0.436     0.000
  YS02001600              0.01      1.38      0  02:46       0.000     0.000
  YS02001601              0.76   1362.67      0  02:25       1.560     0.000
  YS02001602              0.66     61.98      0  02:17       0.135     0.000
  YS02001605              0.01      0.35      0  02:15       0.000     0.000
  YS02001610              0.59    832.94      0  02:26       0.809     0.000
  YS02001616              0.01      1.07      0  02:25       0.000     0.000
  YS02001619              0.01      0.58      0  02:25       0.000     0.000
  YS02001625              0.56   1434.21      0  02:26       1.518     0.000
  YS02001629              0.12     77.91      0  02:25       0.013     0.000
  YS02001633              0.01      2.30      0  02:13       0.000     0.000
  YS02001641              0.01      2.54      0  02:13       0.000     0.000
  YS02001644              0.27   1449.79      0  02:25       0.646     0.000
  YS02001765              0.01      2.56      0  02:18       0.000     0.000
  YS02001767              0.01      1.80      0  02:18       0.000     0.000
  YS02001770              0.01      7.10      0  02:18       0.000     0.000
  YS02001774              0.01      2.75      0  02:18       0.000     0.000
  YS02001779              0.22    753.35      0  02:25       0.293     0.000
  YS02001882              0.01      4.61      0  02:15       0.000     0.000
  YS02001884              0.01      5.18      0  02:15       0.000     0.000
  YS02001887              0.01      3.29      0  02:13       0.000     0.000
  YS02001890              0.20    369.60      0  02:25       0.114     0.000
  YS02001907              0.38   2123.10      0  02:25       1.455     0.000
  YS02163301              0.01      1.18      0  02:13       0.000     0.000
  YS02163601              0.01      1.84      0  02:13       0.000     0.000
  YS02164001              0.01      4.44      0  02:13       0.000     0.000
  
  
  **********************
  Storage Volume Summary
  **********************
  
  ------------------------------------------------------------------------------------------------
                         Average    Avg   Evap  Exfil     Maximum    Max    Time of Max    Maximum
                          Volume   Pcnt   Pcnt   Pcnt      Volume   Pcnt     Occurrence    Outflow
  Storage Unit           1000 m³   Full   Loss   Loss     1000 m³   Full    days hr:min        LPS
  ------------------------------------------------------------------------------------------------
  CC-storage               2.622   40.9    0.0    0.0       5.174   80.7       0  02:46    1783.53
  JK-storage               0.116   39.8    0.0    0.0       0.213   73.1       0  02:16    2300.00
  
  
  ***********************
  Outfall Loading Summary
  ***********************
  
  -----------------------------------------------------------
                         Flow       Avg       Max       Total
                         Freq      Flow      Flow      Volume
  Outfall Node           Pcnt       LPS       LPS    10^6 ltr
  -----------------------------------------------------------
  CC-1                  36.21    683.00    683.00       4.509
  CC-2                  33.25    683.00    683.00       4.182
  JK-1                  17.77   1000.00   1000.00       2.568
  JK-2                   0.24   1000.00   1000.00       0.048
  WSC                   99.93    227.94    555.23       4.572
  -----------------------------------------------------------
  System                37.48   3593.94   3366.23      15.880
  
  
  ********************
  Link Flow Summary
  ********************
  
  -----------------------------------------------------------------------------
                                 Maximum  Time of Max   Maximum    Max/    Max/
                                  |Flow|   Occurrence   |Veloc|    Full    Full
  Link                 Type          LPS  days hr:min     m/sec    Flow   Depth
  -----------------------------------------------------------------------------
  1                    CONDUIT    555.23     0  03:12      2.83    0.19    0.30
  WS02003060WS02003069 CONDUIT    553.60     0  03:06      1.64    0.22    0.34
  WS02003066WSF200     CONDUIT    537.04     0  03:05      2.85    0.09    0.22
  WS02003067WS02003066 CONDUIT    536.99     0  03:05      1.21    0.17    0.42
  WS02003069WS02003072 CONDUIT    553.61     0  03:07      1.37    0.27    0.39
  WS02003072WS02003073 CONDUIT    553.46     0  03:11      1.44    1.20    0.37
  WS02004401WS02004402 CONDUIT    538.96     0  03:02      1.23    0.65    0.86
  WS02004402WS02004403 CONDUIT    538.77     0  03:03      1.24    0.77    0.88
  WS02004403WS02004404 CONDUIT    538.22     0  03:03      1.17    0.39    0.93
  WS02004404WS02004405 CONDUIT    538.20     0  03:03      1.43    5.27    0.96
  WS02004405WS02004406 CONDUIT    538.49     0  03:03      1.39    1.06    0.96
  WS02004406WS02004407 CONDUIT    537.92     0  03:03      1.04    0.24    0.63
  WS02004407WS02004409 CONDUIT    537.62     0  03:03      1.52    0.19    0.48
  WS02004409WS02004410 CONDUIT    537.43     0  03:04      0.99    0.70    0.67
  WS02004410WS02004411 CONDUIT    537.20     0  03:04      0.94    0.73    0.69
  WS02004411WS02004412 CONDUIT    537.20     0  03:04      0.92    0.76    0.69
  WS02004412WS02004413 CONDUIT    537.12     0  03:04      0.87    0.36    0.78
  WS02004413WS02003067 CONDUIT    536.91     0  03:05      1.11    0.23    0.59
  WS02006109WS02006110 CONDUIT    550.98     0  03:49      1.10    1.06    1.00
  WS02006110WS02006113 CONDUIT    557.86     0  03:49      1.34    0.51    0.78
  WS02006111WS02006112 CONDUIT    543.54     0  02:59      1.96    0.26    0.67
  WS02006112WS02006115 CONDUIT    549.19     0  02:57      0.78    0.32    0.87
  WS02006113WS02006111 CONDUIT    559.96     0  03:05      2.46    0.67    0.46
  WS02006115WS02006116 CONDUIT    541.74     0  03:02      1.19    0.70    0.76
  WS02006116WS02004401 CONDUIT    539.53     0  03:02      1.22    0.74    0.84
  WS02006228WS02006109 CONDUIT    548.92     0  03:49      1.09    2.40    1.00
  WS02006229WS02006228 CONDUIT    548.53     0  03:49      1.14    1.82    1.00
  WS02006230WS02006229 CONDUIT    548.48     0  03:49      1.43   12.21    1.00
  WS02006231WS02006230 CONDUIT    570.35     0  03:48      1.55    8.65    1.00
  WS02006232WS02006231 CONDUIT    570.23     0  03:48      1.48    1.19    1.00
  WS02006234WS02006232 CONDUIT    569.16     0  03:48      1.48    1.15    1.00
  WS02006235WS02006234 CONDUIT    565.07     0  03:48      1.47    5.96    1.00
  WS02006238WS02006235 CONDUIT    416.68     0  03:14      1.46    0.93    1.00
  WS02006239WS02006238 CONDUIT    417.48     0  03:14      1.10    1.34    1.00
  WS02006240WS02006239 CONDUIT    417.46     0  03:14      1.24    1.31    1.00
  WS02006242WS02006240 CONDUIT    416.18     0  03:14      1.13    1.65    1.00
  WS02006243WS02006242 CONDUIT    415.87     0  03:14      1.40    0.89    1.00
  WS02006245WS02006243 CONDUIT    415.28     0  03:14      1.45    1.23    1.00
  WS02006247WS02006245 CONDUIT    415.08     0  03:14      1.43    3.29    1.00
  WS02006248WS02006247 CONDUIT    414.24     0  03:14      1.44    0.90    1.00
  WS02006249WS02006248 CONDUIT    414.23     0  03:14      1.36    2.27    1.00
  WS02006251WS02006249 CONDUIT    459.02     0  00:00      1.99    1.32    1.00
  WS02006252WS02006251 CONDUIT    407.28     0  02:03     25.30    1.49    1.00
  WS02006256WS02006235 CONDUIT    288.91     0  00:00      4.23    3.06    1.00
  WSF200WS02003060     CONDUIT    537.21     0  03:05      2.06    0.12    0.28
  YS02001580YS02001583 CONDUIT     74.60     0  02:08      0.48    0.29    1.00
  YS02001583YS02001586 CONDUIT    103.81     0  02:08      0.43    0.16    1.00
  YS02001586YS02001590 CONDUIT    318.10     0  02:18      1.24    0.56    1.00
  YS02001590YS02001593 CONDUIT    318.10     0  02:18      1.13    2.00    1.00
  YS02001593YS02001596 CONDUIT    318.13     0  02:18      1.72    0.50    1.00
  YS02001596YS02001600 CONDUIT    318.10     0  02:18      1.27    0.62    1.00
  YS02001600YS02001601 CONDUIT    318.02     0  02:18      1.12    0.55    1.00
  YS02001601YS02001602 CONDUIT    489.80     0  02:08      1.73    1.77    1.00
  YS02001602YS02001605 CONDUIT    490.07     0  02:08      1.73   10.37    1.00
  YS02001605YS02001607 CONDUIT    489.61     0  02:08      1.73    2.68    1.00
  YS02001607YS02001610 CONDUIT    489.56     0  02:08      0.62    0.47    1.00
  YS02001610YS02001613 CONDUIT    496.91     0  02:26      0.63    0.57    1.00
  YS02001613YS02001616 CONDUIT    496.74     0  02:26      0.63    0.43    1.00
  YS02001616YS02001619 CONDUIT    497.05     0  02:26      0.66    0.86    1.00
  YS02001619YS02001622 CONDUIT   1000.75     0  02:25      1.27    1.47    1.00
  YS02001622YS02001625 CONDUIT   1000.77     0  02:25      1.27    0.53    1.00
  YS02001625YS02001629 CONDUIT    891.54     0  02:11      1.14    0.42    1.00
  YS02001629YS02163301 CONDUIT    891.55     0  02:11      1.14    1.10    1.00
  YS02001633YS02163601 CONDUIT   1229.39     0  02:12      1.57    1.29    1.00
  YS02001641YS02001644 CONDUIT   1231.07     0  02:12      1.57    3.98    1.00
  YS02001644YS02001647 CONDUIT   1564.90     0  02:13      2.02    0.92    1.00
  YS02001647YS02001649 CONDUIT   1581.05     0  02:13      2.16    0.83    1.00
  YS02001649YS02001757 CONDUIT   1747.44     0  02:13      2.25    1.06    1.00
  YS02001652YS02001649 CONDUIT    971.63     0  02:25      1.24    0.48    1.00
  YS02001655YS02001652 CONDUIT    971.41     0  02:25      1.25    0.47    1.00
  YS02001658YS02001655 CONDUIT    971.19     0  02:25      1.78    0.41    1.00
  YS02001661YS02001658 CONDUIT    971.14     0  02:25      2.09    0.38    1.00
  YS02001664YS02001661 CONDUIT    971.22     0  02:25      1.98    0.30    0.82
  YS02001745YS02001748 CONDUIT    599.60     0  02:25      1.94    0.23    0.95
  YS02001748YS02001751 CONDUIT    600.03     0  02:25      1.54    0.30    1.00
  YS02001751YS02001754 CONDUIT    600.12     0  02:25      1.37    0.29    1.00
  YS02001754YS02001757 CONDUIT    600.09     0  02:25      0.76    0.24    1.00
  YS02001757CaochengTiaoxuchi CONDUIT   2953.14     0  02:24      3.76    1.28    1.00
  YS02001759YS02001757 CONDUIT   1258.68     0  02:25      1.60    0.89    1.00
  YS02001762YS02001759 CONDUIT    674.13     0  02:20      0.86    0.78    1.00
  YS02001765YS02001762 CONDUIT    673.87     0  02:20      0.86    0.63    1.00
  YS02001767YS02001765 CONDUIT    673.73     0  02:19      0.86    0.85    1.00
  YS02001770YS02001767 CONDUIT    672.72     0  02:19      0.86    2.66    1.00
  YS02001774YS02001770 CONDUIT    752.62     0  02:25      0.96    0.48    1.00
  YS02001779YS02001774 CONDUIT    753.77     0  02:25      0.96    0.38    1.00
  YS02001783YS02001784 CONDUIT   1167.30     0  02:24      2.32    1.61    1.00
  YS02001784YS02001785 CONDUIT   1167.67     0  02:24      2.32    2.72    1.00
  YS02001786YS02001788 CONDUIT   1167.97     0  02:23      2.49    2.25    0.89
  YS02001788YS02001790 CONDUIT   1176.54     0  02:23      2.72    0.87    0.84
  YS02001790YS02001791 CONDUIT   1289.51     0  02:20      3.43    1.40    0.71
  YS02001791YS02001793 CONDUIT   1264.87     0  02:24      6.77    0.54    0.44
  YS02001793JiankangQianchi CONDUIT   1301.56     0  02:25      2.61    0.10    0.64
  YS02001882YS02001884 CONDUIT     36.39     0  02:13      0.14    0.04    1.00
  YS02001884YS02001887 CONDUIT     37.19     0  02:52      0.10    0.05    1.00
  YS02001887YS02001890 CONDUIT    886.69     0  02:25      1.13    1.52    1.00
  YS02001890YS02001895 CONDUIT    519.29     0  02:27      0.66    0.24    1.00
  YS02001895YS02001898 CONDUIT    517.79     0  02:27      0.66    0.90    1.00
  YS02001898YS02001901 CONDUIT    517.52     0  02:27      0.66    0.33    1.00
  YS02001901YS02001904 CONDUIT    517.76     0  02:27      0.66    0.80    1.00
  YS02001904YS02001907 CONDUIT    519.16     0  02:27      0.66    0.18    1.00
  YS02001907YS02006553 CONDUIT    802.09     0  02:39      0.89    0.94    1.00
  YS02001910YS02001907 CONDUIT   1569.08     0  02:25      2.00    0.88    1.00
  YS02001915YS02001910 CONDUIT   1569.36     0  02:25      2.00    0.78    1.00
  YS02001918YS02001915 CONDUIT    526.13     0  02:25      0.67    0.29    1.00
  YS02001920YS02001918 CONDUIT    526.03     0  02:25      0.67    0.51    1.00
  YS02001923YS02001920 CONDUIT    523.45     0  02:25      0.69    0.23    1.00
  YS02001926YS02001923 CONDUIT    522.88     0  02:25      0.94    0.75    1.00
  YS02001929YS02001926 CONDUIT    521.96     0  02:25      1.06    0.25    1.00
  YS02006553YS02006556 CONDUIT    802.69     0  02:39      1.02    0.69    1.00
  YS02006556YS02006558 CONDUIT    804.57     0  02:40      1.02    0.64    1.00
  YS02006558YS02006561 CONDUIT   1166.71     0  02:24      4.13    2.58    1.00
  YS02006561YS02001783 CONDUIT   1166.94     0  02:24      2.32    0.60    1.00
  YS02163301YS02001633 CONDUIT    890.79     0  02:11      1.13    0.84    1.00
  YS02163601YS02164001 CONDUIT   1230.08     0  02:12      1.57    1.09    1.00
  YS02164001YS02001641 CONDUIT   1231.40     0  02:12      1.57    1.68    1.00
  CC-R1                PUMP       683.00     0  00:00              1.00
  CC-R2                PUMP       683.00     0  00:00              1.00
  CC-S1                PUMP       200.00     0  00:00              1.00
  CC-S2                PUMP       200.00     0  00:00              1.00
  JK-R1                PUMP      1000.00     0  00:00              1.00
  JK-R2                PUMP      1000.00     0  00:00              1.00
  JK-S                 PUMP       300.00     0  00:00              1.00
  
  
  ***************************
  Flow Classification Summary
  ***************************
  
  -------------------------------------------------------------------------------------
                      Adjusted    ---------- Fraction of Time in Flow Class ---------- 
                       /Actual         Up    Down  Sub   Sup   Up    Down  Norm  Inlet 
  Conduit               Length    Dry  Dry   Dry   Crit  Crit  Crit  Crit  Ltd   Ctrl  
  -------------------------------------------------------------------------------------
  1                       1.00   0.00  0.00  0.00  0.00  1.00  0.00  0.00  0.66  0.00
  WS02003060WS02003069    1.00   0.00  0.00  0.00  0.97  0.03  0.00  0.00  0.72  0.00
  WS02003066WSF200        1.00   0.06  0.00  0.00  0.00  0.94  0.00  0.00  0.76  0.00
  WS02003067WS02003066    1.00   0.05  0.01  0.00  0.94  0.00  0.00  0.00  0.00  0.00
  WS02003069WS02003072    1.00   0.00  0.00  0.00  0.99  0.01  0.00  0.00  0.74  0.00
  WS02003072WS02003073    1.00   0.00  0.00  0.00  0.00  0.00  0.00  1.00  0.00  0.00
  WS02004401WS02004402    1.00   0.02  0.00  0.00  0.98  0.00  0.00  0.00  0.00  0.00
  WS02004402WS02004403    1.00   0.02  0.00  0.00  0.98  0.00  0.00  0.00  0.00  0.00
  WS02004403WS02004404    1.00   0.00  0.03  0.00  0.97  0.00  0.00  0.00  0.00  0.00
  WS02004404WS02004405    1.00   0.00  0.00  0.00  1.00  0.00  0.00  0.00  0.00  0.00
  WS02004405WS02004406    1.00   0.00  0.00  0.00  1.00  0.00  0.00  0.00  0.00  0.00
  WS02004406WS02004407    1.00   0.00  0.03  0.00  0.96  0.00  0.00  0.00  0.00  0.00
  WS02004407WS02004409    1.00   0.04  0.00  0.00  0.96  0.01  0.00  0.00  0.96  0.00
  WS02004409WS02004410    1.00   0.04  0.00  0.00  0.96  0.00  0.00  0.00  0.00  0.00
  WS02004410WS02004411    1.00   0.04  0.00  0.00  0.96  0.00  0.00  0.00  0.00  0.00
  WS02004411WS02004412    1.00   0.04  0.00  0.00  0.96  0.00  0.00  0.00  0.00  0.00
  WS02004412WS02004413    1.00   0.04  0.00  0.00  0.96  0.00  0.00  0.00  0.00  0.00
  WS02004413WS02003067    1.00   0.04  0.01  0.00  0.00  0.00  0.95  0.00  0.00  0.00
  WS02006109WS02006110    1.00   0.00  0.01  0.00  0.98  0.00  0.01  0.00  0.00  0.00
  WS02006110WS02006113    1.00   0.01  0.01  0.00  0.98  0.00  0.00  0.00  0.00  0.00
  WS02006111WS02006112    1.00   0.02  0.00  0.00  0.98  0.00  0.00  0.00  0.98  0.00
  WS02006112WS02006115    1.00   0.02  0.00  0.00  0.97  0.00  0.00  0.00  0.00  0.00
  WS02006113WS02006111    1.00   0.02  0.00  0.00  0.00  0.98  0.00  0.00  0.11  0.00
  WS02006115WS02006116    1.00   0.02  0.00  0.00  0.97  0.00  0.00  0.01  0.00  0.00
  WS02006116WS02004401    1.00   0.02  0.00  0.00  0.98  0.00  0.00  0.00  0.00  0.00
  WS02006228WS02006109    1.00   0.00  0.00  0.00  1.00  0.00  0.00  0.00  0.00  0.00
  WS02006229WS02006228    1.00   0.00  0.00  0.00  0.99  0.00  0.00  0.01  0.00  0.00
  WS02006230WS02006229    1.00   0.00  0.00  0.00  0.99  0.00  0.00  0.01  0.00  0.00
  WS02006231WS02006230    1.00   0.00  0.00  0.00  0.26  0.00  0.74  0.00  0.00  0.00
  WS02006232WS02006231    1.00   0.00  0.00  0.00  0.99  0.00  0.01  0.00  0.00  0.00
  WS02006234WS02006232    1.00   0.00  0.00  0.00  1.00  0.00  0.00  0.00  0.49  0.00
  WS02006235WS02006234    1.00   0.00  0.00  0.00  0.47  0.00  0.53  0.00  0.00  0.00
  WS02006238WS02006235    1.00   0.00  0.00  0.00  1.00  0.00  0.00  0.00  0.00  0.00
  WS02006239WS02006238    1.00   0.00  0.00  0.00  1.00  0.00  0.00  0.00  0.59  0.00
  WS02006240WS02006239    1.00   0.00  0.00  0.00  0.38  0.00  0.00  0.62  0.01  0.00
  WS02006242WS02006240    1.00   0.00  0.00  0.00  1.00  0.00  0.00  0.00  0.00  0.00
  WS02006243WS02006242    1.00   0.00  0.00  0.00  0.99  0.00  0.00  0.00  0.68  0.00
  WS02006245WS02006243    1.00   0.00  0.00  0.00  0.43  0.00  0.00  0.57  0.00  0.00
  WS02006247WS02006245    1.00   0.00  0.00  0.00  1.00  0.00  0.00  0.00  0.00  0.00
  WS02006248WS02006247    1.00   0.00  0.00  0.00  1.00  0.00  0.00  0.00  0.12  0.00
  WS02006249WS02006248    1.00   0.00  0.00  0.00  0.31  0.00  0.69  0.00  0.00  0.00
  WS02006251WS02006249    1.00   0.00  0.00  0.00  0.99  0.00  0.00  0.00  0.69  0.00
  WS02006252WS02006251    1.00   0.00  0.22  0.00  0.15  0.00  0.63  0.00  0.00  0.00
  WS02006256WS02006235    1.00   0.00  0.00  0.00  1.00  0.00  0.00  0.00  0.00  0.00
  WSF200WS02003060        1.00   0.00  0.06  0.00  0.56  0.38  0.00  0.00  0.66  0.00
  YS02001580YS02001583    1.00   0.26  0.53  0.00  0.21  0.00  0.00  0.00  0.62  0.00
  YS02001583YS02001586    1.00   0.40  0.34  0.00  0.26  0.00  0.00  0.00  0.62  0.00
  YS02001586YS02001590    1.00   0.13  0.00  0.00  0.46  0.04  0.00  0.37  0.38  0.00
  YS02001590YS02001593    1.00   0.13  0.01  0.00  0.13  0.00  0.73  0.00  0.00  0.00
  YS02001593YS02001596    1.00   0.13  0.00  0.00  0.15  0.01  0.00  0.70  0.02  0.00
  YS02001596YS02001600    1.00   0.14  0.00  0.00  0.22  0.01  0.00  0.63  0.05  0.00
  YS02001600YS02001601    1.00   0.13  0.01  0.00  0.86  0.00  0.00  0.00  0.58  0.00
  YS02001601YS02001602    1.00   0.13  0.01  0.00  0.87  0.00  0.00  0.00  0.00  0.00
  YS02001602YS02001605    1.00   0.13  0.00  0.00  0.86  0.00  0.00  0.00  0.00  0.00
  YS02001605YS02001607    1.00   0.14  0.00  0.00  0.86  0.00  0.00  0.00  0.00  0.00
  YS02001607YS02001610    1.00   0.13  0.01  0.00  0.86  0.00  0.00  0.00  0.01  0.00
  YS02001610YS02001613    1.00   0.13  0.00  0.00  0.87  0.00  0.00  0.00  0.00  0.00
  YS02001613YS02001616    1.00   0.13  0.00  0.00  0.87  0.00  0.00  0.00  0.00  0.00
  YS02001616YS02001619    1.00   0.13  0.00  0.00  0.87  0.00  0.00  0.00  0.00  0.00
  YS02001619YS02001622    1.00   0.13  0.00  0.00  0.87  0.00  0.00  0.00  0.26  0.00
  YS02001622YS02001625    1.00   0.13  0.00  0.00  0.87  0.00  0.00  0.00  0.04  0.00
  YS02001625YS02001629    1.00   0.13  0.04  0.00  0.19  0.00  0.64  0.00  0.00  0.00
  YS02001629YS02163301    1.00   0.15  0.01  0.00  0.84  0.00  0.00  0.00  0.00  0.00
  YS02001633YS02163601    1.00   0.00  0.01  0.00  0.99  0.00  0.00  0.00  0.15  0.00
  YS02001641YS02001644    1.00   0.00  0.01  0.00  0.99  0.00  0.00  0.00  0.00  0.00
  YS02001644YS02001647    1.00   0.00  0.17  0.00  0.83  0.00  0.00  0.00  0.00  0.00
  YS02001647YS02001649    1.00   0.00  0.17  0.00  0.53  0.30  0.00  0.00  0.55  0.00
  YS02001649YS02001757    1.00   0.00  0.00  0.00  0.67  0.33  0.00  0.00  0.42  0.00
  YS02001652YS02001649    1.00   0.00  0.00  0.00  0.97  0.03  0.00  0.00  0.72  0.00
  YS02001655YS02001652    1.00   0.00  0.00  0.00  0.21  0.01  0.00  0.78  0.05  0.00
  YS02001658YS02001655    1.00   0.00  0.14  0.00  0.67  0.19  0.00  0.00  0.67  0.00
  YS02001661YS02001658    1.00   0.14  0.00  0.00  0.51  0.35  0.00  0.00  0.68  0.00
  YS02001664YS02001661    1.00   0.13  0.00  0.00  0.78  0.09  0.00  0.00  0.84  0.00
  YS02001745YS02001748    1.00   0.00  0.00  0.00  0.12  0.00  0.00  0.87  0.04  0.00
  YS02001748YS02001751    1.00   0.00  0.00  0.00  0.84  0.16  0.00  0.00  0.72  0.00
  YS02001751YS02001754    1.00   0.00  0.00  0.00  0.18  0.01  0.00  0.81  0.03  0.00
  YS02001754YS02001757    1.00   0.00  0.00  0.00  1.00  0.00  0.00  0.00  0.80  0.00
  YS02001757CaochengTiaoxuchi    1.00   0.00  0.00  0.00  1.00  0.00  0.00  0.00  0.80  0.00
  YS02001759YS02001757    1.00   0.00  0.00  0.00  0.99  0.01  0.00  0.00  0.58  0.00
  YS02001762YS02001759    1.00   0.00  0.00  0.00  1.00  0.00  0.00  0.00  0.04  0.00
  YS02001765YS02001762    1.00   0.00  0.00  0.00  1.00  0.00  0.00  0.00  0.69  0.00
  YS02001767YS02001765    1.00   0.00  0.00  0.00  1.00  0.00  0.00  0.00  0.00  0.00
  YS02001770YS02001767    1.00   0.00  0.00  0.00  1.00  0.00  0.00  0.00  0.00  0.00
  YS02001774YS02001770    1.00   0.00  0.13  0.00  0.72  0.00  0.15  0.00  0.03  0.00
  YS02001779YS02001774    1.00   0.00  0.00  0.00  1.00  0.00  0.00  0.00  0.73  0.00
  YS02001783YS02001784    1.00   0.00  0.18  0.00  0.82  0.00  0.00  0.00  0.54  0.00
  YS02001784YS02001785    1.00   0.00  0.00  0.00  1.00  0.00  0.00  0.00  0.16  0.00
  YS02001786YS02001788    1.00   0.00  0.00  0.00  0.78  0.22  0.00  0.00  0.00  0.00
  YS02001788YS02001790    1.00   0.00  0.00  0.00  0.22  0.78  0.00  0.00  0.78  0.00
  YS02001790YS02001791    1.00   0.00  0.00  0.00  0.01  0.99  0.00  0.00  0.17  0.00
  YS02001791YS02001793    1.00   0.00  0.00  0.00  0.00  1.00  0.00  0.00  0.01  0.00
  YS02001793JiankangQianchi    1.00   0.00  0.00  0.00  0.96  0.04  0.00  0.00  0.97  0.00
  YS02001882YS02001884    1.00   0.15  0.01  0.00  0.84  0.00  0.00  0.00  0.00  0.00
  YS02001884YS02001887    1.00   0.06  0.05  0.00  0.89  0.00  0.00  0.00  0.00  0.00
  YS02001887YS02001890    1.00   0.00  0.00  0.00  0.97  0.00  0.03  0.00  0.00  0.00
  YS02001890YS02001895    1.00   0.00  0.16  0.00  0.84  0.00  0.00  0.00  0.00  0.00
  YS02001895YS02001898    1.00   0.16  0.00  0.00  0.82  0.00  0.02  0.00  0.00  0.00
  YS02001898YS02001901    1.00   0.16  0.00  0.00  0.84  0.00  0.00  0.00  0.01  0.00
  YS02001901YS02001904    1.00   0.16  0.00  0.00  0.84  0.00  0.00  0.00  0.00  0.00
  YS02001904YS02001907    1.00   0.00  0.16  0.00  0.84  0.00  0.00  0.00  0.00  0.00
  YS02001907YS02006553    1.00   0.00  0.02  0.00  0.98  0.00  0.00  0.00  0.00  0.00
  YS02001910YS02001907    1.00   0.00  0.00  0.00  0.97  0.00  0.00  0.03  0.12  0.00
  YS02001915YS02001910    1.00   0.00  0.00  0.00  0.97  0.03  0.00  0.00  0.15  0.00
  YS02001918YS02001915    1.00   0.00  0.01  0.00  0.98  0.02  0.00  0.00  0.73  0.00
  YS02001920YS02001918    1.00   0.00  0.01  0.00  0.99  0.00  0.00  0.00  0.00  0.00
  YS02001923YS02001920    1.00   0.00  0.00  0.00  1.00  0.00  0.00  0.00  0.91  0.00
  YS02001926YS02001923    1.00   0.00  0.07  0.00  0.07  0.00  0.86  0.00  0.00  0.00
  YS02001929YS02001926    1.00   0.00  0.13  0.00  0.87  0.00  0.00  0.00  0.81  0.00
  YS02006553YS02006556    1.00   0.01  0.00  0.00  0.99  0.00  0.00  0.00  0.03  0.00
  YS02006556YS02006558    1.00   0.00  0.00  0.00  1.00  0.00  0.00  0.00  0.00  0.00
  YS02006558YS02006561    1.00   0.17  0.00  0.00  0.06  0.76  0.00  0.00  0.18  0.00
  YS02006561YS02001783    1.00   0.17  0.00  0.00  0.10  0.72  0.00  0.00  0.67  0.00
  YS02163301YS02001633    1.00   0.00  0.15  0.00  0.85  0.00  0.00  0.00  0.00  0.00
  YS02163601YS02164001    1.00   0.00  0.08  0.00  0.92  0.00  0.00  0.00  0.00  0.00
  YS02164001YS02001641    1.00   0.01  0.07  0.00  0.92  0.00  0.00  0.00  0.05  0.00
  
  
  *************************
  Conduit Surcharge Summary
  *************************
  
  ----------------------------------------------------------------------------
                                                           Hours        Hours 
                         --------- Hours Full --------   Above Full   Capacity
  Conduit                Both Ends  Upstream  Dnstream   Normal Flow   Limited
  ----------------------------------------------------------------------------
  WS02003072WS02003073        0.01      0.01      0.01      1.29         0.01
  WS02004404WS02004405        0.01      0.01      0.01      2.36         0.01
  WS02004405WS02004406        0.01      0.01      0.01      1.12         0.01
  WS02006109WS02006110        1.19      1.19      1.96      1.21         0.01
  WS02006110WS02006113        0.01      0.01      1.93      0.01         0.01
  WS02006111WS02006112        0.01      0.01      2.03      0.01         0.01
  WS02006112WS02006115        0.01      0.01      1.14      0.01         0.01
  WS02006228WS02006109        1.90      1.97      1.90      2.18         1.90
  WS02006229WS02006228        1.89      1.92      1.89      2.11         1.89
  WS02006230WS02006229        2.01      2.05      2.01      2.72         2.01
  WS02006231WS02006230        1.19      1.19      1.23      2.57         0.01
  WS02006232WS02006231        1.22      1.22      1.96      1.24         0.01
  WS02006234WS02006232        1.85      1.85      1.96      1.23         1.22
  WS02006235WS02006234        1.30      1.30      1.91      2.49         0.01
  WS02006238WS02006235        1.93      1.93      1.96      0.01         0.01
  WS02006239WS02006238        1.87      1.87      1.93      1.86         1.64
  WS02006240WS02006239        1.83      1.83      1.84      1.87         1.50
  WS02006242WS02006240        1.83      1.83      1.85      1.92         0.01
  WS02006243WS02006242        1.82      1.82      1.83      0.01         0.01
  WS02006245WS02006243        1.81      1.81      1.82      0.69         0.88
  WS02006247WS02006245        1.81      1.81      1.81      2.11         1.80
  WS02006248WS02006247        1.80      1.80      1.81      0.01         0.01
  WS02006249WS02006248        1.80      1.80      1.80      2.09         0.01
  WS02006251WS02006249        1.80      1.80      1.80      1.94         1.78
  WS02006252WS02006251        1.96      1.96      1.96      1.96         0.01
  WS02006256WS02006235        2.52      2.53      3.30      1.68         0.01
  YS02001580YS02001583        0.68      0.68      0.76      0.01         0.01
  YS02001583YS02001586        0.69      0.69      0.84      0.01         0.01
  YS02001586YS02001590        0.85      0.85      0.93      0.01         0.01
  YS02001590YS02001593        0.93      0.93      0.95      0.93         0.01
  YS02001593YS02001596        0.94      0.94      1.05      0.01         0.01
  YS02001596YS02001600        1.11      1.11      1.21      0.01         0.01
  YS02001600YS02001601        1.27      1.27      1.58      0.01         0.01
  YS02001601YS02001602        1.46      1.46      1.62      1.22         0.01
  YS02001602YS02001605        1.41      1.41      1.46      2.46         0.01
  YS02001605YS02001607        1.36      1.41      1.36      1.51         1.34
  YS02001607YS02001610        0.92      0.92      0.95      0.01         0.01
  YS02001610YS02001613        0.92      0.92      0.95      0.01         0.01
  YS02001613YS02001616        0.88      0.88      0.92      0.01         0.01
  YS02001616YS02001619        0.87      0.87      0.88      0.01         0.03
  YS02001619YS02001622        0.86      0.87      0.86      0.91         0.81
  YS02001622YS02001625        0.86      0.86      1.04      0.01         0.01
  YS02001625YS02001629        0.80      0.80      1.04      0.01         0.01
  YS02001629YS02163301        1.04      1.04      1.05      0.08         0.11
  YS02001633YS02163601        1.07      1.07      1.11      0.26         0.24
  YS02001641YS02001644        0.98      1.02      0.98      1.67         0.97
  YS02001644YS02001647        0.80      0.80      0.98      0.01         0.01
  YS02001647YS02001649        0.80      0.80      0.91      0.01         0.01
  YS02001649YS02001757        0.91      0.91      0.98      0.04         0.04
  YS02001652YS02001649        0.76      0.76      0.91      0.01         0.01
  YS02001655YS02001652        0.57      0.57      0.74      0.01         0.01
  YS02001658YS02001655        0.31      0.31      0.57      0.01         0.01
  YS02001661YS02001658        0.07      0.07      0.31      0.01         0.01
  YS02001664YS02001661        0.01      0.01      0.12      0.01         0.01
  YS02001745YS02001748        0.01      0.01      0.24      0.01         0.01
  YS02001748YS02001751        0.29      0.29      0.44      0.01         0.01
  YS02001751YS02001754        0.44      0.44      0.66      0.01         0.01
  YS02001754YS02001757        0.71      0.71      0.98      0.01         0.01
  YS02001757CaochengTiaoxuchi        0.98      0.98      1.58      0.37         0.37
  YS02001759YS02001757        0.89      0.89      0.98      0.01         0.01
  YS02001762YS02001759        0.87      0.87      0.89      0.01         0.01
  YS02001765YS02001762        0.83      0.83      0.87      0.01         0.01
  YS02001767YS02001765        0.80      0.80      0.83      0.01         0.01
  YS02001770YS02001767        0.80      0.80      0.80      0.51         0.49
  YS02001774YS02001770        0.78      0.78      0.85      0.01         0.01
  YS02001779YS02001774        0.63      0.63      0.85      0.01         0.01
  YS02001783YS02001784        0.57      0.60      0.57      0.78         0.57
  YS02001784YS02001785        0.45      0.57      0.45      1.08         0.45
  YS02001786YS02001788        0.01      0.45      0.01      0.93         0.01
  YS02001790YS02001791        0.01      0.01      0.01      0.55         0.01
  YS02001793JiankangQianchi        0.01      0.01      7.61      0.01         0.01
  YS02001882YS02001884        0.53      0.53      0.54      0.01         0.01
  YS02001884YS02001887        0.57      0.57      0.58      0.01         0.01
  YS02001887YS02001890        0.60      0.60      0.61      0.13         0.01
  YS02001890YS02001895        0.52      0.52      0.63      0.01         0.01
  YS02001895YS02001898        0.51      0.51      0.52      0.01         0.01
  YS02001898YS02001901        0.52      0.52      0.57      0.01         0.01
  YS02001901YS02001904        0.56      0.56      0.57      0.01         0.01
  YS02001904YS02001907        0.56      0.56      0.90      0.01         0.01
  YS02001907YS02006553        1.09      1.09      1.17      0.01         0.01
  YS02001910YS02001907        0.63      0.63      0.88      0.01         0.01
  YS02001915YS02001910        0.53      0.53      0.63      0.01         0.01
  YS02001918YS02001915        0.44      0.44      0.53      0.01         0.01
  YS02001920YS02001918        0.44      0.44      0.45      0.01         0.01
  YS02001923YS02001920        0.39      0.39      0.45      0.01         0.01
  YS02001926YS02001923        0.12      0.12      0.15      0.01         0.01
  YS02001929YS02001926        0.01      0.01      0.15      0.01         0.01
  YS02006553YS02006556        0.74      0.74      0.90      0.01         0.01
  YS02006556YS02006558        0.82      0.82      0.92      0.01         0.01
  YS02006558YS02006561        0.47      0.72      0.47      1.02         0.47
  YS02006561YS02001783        0.40      0.40      0.60      0.01         0.01
  YS02163301YS02001633        1.05      1.05      1.09      0.01         0.01
  YS02163601YS02164001        1.02      1.02      1.11      0.08         0.01
  YS02164001YS02001641        1.01      1.02      1.02      0.70         0.60
  
  
  ***************
  Pumping Summary
  ***************
  
  ---------------------------------------------------------------------------------------------------------
                                                  Min       Avg       Max     Total     Power    % Time Off
                        Percent   Number of      Flow      Flow      Flow    Volume     Usage    Pump Curve
  Pump                 Utilized   Start-Ups       LPS       LPS       LPS  10^6 ltr     Kw-hr    Low   High
  ---------------------------------------------------------------------------------------------------------
  CC-R1                   23.16           2      0.00    683.00    683.00     4.508     84.69    0.0   21.0
  CC-R2                   21.48           2      0.00    683.00    683.00     4.181     78.65    0.0   22.6
  CC-S1                   26.85           2      0.00    200.00    200.00     1.530      8.39    0.0    0.0
  CC-S2                   24.78           2      0.00    200.00    200.00     1.413      7.69    0.0    0.0
  JK-R1                    9.01           6      0.00   1000.00   1000.00     2.569     24.84    0.0    0.0
  JK-R2                    0.17           1      0.00   1000.00   1000.00     0.047      0.36    0.0    0.0
  JK-S                    21.19           3      0.00    300.00    300.00     1.812     29.00    0.0    0.0
  

  Analysis begun on:  Thu Jan 16 14:25:41 2025
  Analysis ended on:  Thu Jan 16 14:25:42 2025
  Total elapsed time: 00:00:01