
  EPA STORM WATER MANAGEMENT MODEL - VERSION 5.2 (Build 5.2.4)
  PYSWMM TOOLKIT API - VERSION v1.0 (2023-11-27)
  ------------------------------------------------------------

  WARNING 04: minimum elevation drop used for Conduit WS02004404WS02004405
  WARNING 03: negative offset ignored for Link YS02001904YS02001907
  
  ****************
  Analysis Options
  ****************
  Flow Units ............... LPS
  Process Models:
    Rainfall/Runoff ........ YES
    RDII ................... NO
    Snowmelt ............... NO
    Groundwater ............ NO
    Flow Routing ........... YES
    Ponding Allowed ........ NO
    Water Quality .......... NO
  Infiltration Method ...... HORTON
  Flow Routing Method ...... DYNWAVE
  Surcharge Method ......... EXTRAN
  Starting Date ............ 08/28/2015 08:00:00
  Ending Date .............. 08/28/2015 16:00:00
  Antecedent Dry Days ...... 8.0
  Report Time Step ......... 00:01:00
  Wet Time Step ............ 00:01:00
  Dry Time Step ............ 00:01:00
  Routing Time Step ........ 30.00 sec
  Variable Time Step ....... YES
  Maximum Trials ........... 8
  Number of Threads ........ 4
  Head Tolerance ........... 0.001500 m
  
  
  **************************        Volume         Depth
  Runoff Quantity Continuity     hectare-m            mm
  **************************     ---------       -------
  Total Precipitation ......         1.931        58.212
  Evaporation Loss .........         0.000         0.000
  Infiltration Loss ........         0.097         2.920
  Surface Runoff ...........         1.802        54.311
  Final Storage ............         0.033         0.995
  Continuity Error (%) .....        -0.024
  
  
  **************************        Volume        Volume
  Flow Routing Continuity        hectare-m      10^6 ltr
  **************************     ---------     ---------
  Dry Weather Inflow .......         0.025         0.248
  Wet Weather Inflow .......         1.802        18.016
  Groundwater Inflow .......         0.000         0.000
  RDII Inflow ..............         0.000         0.000
  External Inflow ..........         0.083         0.825
  External Outflow .........         1.371        13.713
  Flooding Loss ............         0.560         5.598
  Evaporation Loss .........         0.000         0.000
  Exfiltration Loss ........         0.000         0.000
  Initial Stored Volume ....         0.243         2.431
  Final Stored Volume ......         0.226         2.263
  Continuity Error (%) .....        -0.249
  
  
  *************************
  Highest Continuity Errors
  *************************
  Node YS02001583 (-6.50%)
  Node YS02001884 (4.95%)
  
  
  ***************************
  Time-Step Critical Elements
  ***************************
  Link WS02004404WS02004405 (31.56%)
  Link WS02006238WS02006235 (14.33%)
  Link YS02001791YS02001793 (12.36%)
  Link WS02003066WSF200 (10.68%)
  Link WS02006252WS02006251 (8.97%)
  
  
  ********************************
  Highest Flow Instability Indexes
  ********************************
  Link WS02006113WS02006111 (27)
  Link WS02006252WS02006251 (25)
  Link WS02006238WS02006235 (21)
  Link WS02006111WS02006112 (20)
  Link WS02006110WS02006113 (16)
  
  
  *********************************
  Most Frequent Nonconverging Nodes
  *********************************
  Node CC-1 (12.11%)
  Node CC-2 (12.11%)
  Node JK-1 (12.11%)
  Node JK-2 (12.11%)
  Node WSC (12.11%)
  
  
  *************************
  Routing Time Step Summary
  *************************
  Minimum Time Step           :     0.02 sec
  Average Time Step           :     3.45 sec
  Maximum Time Step           :     6.43 sec
  % of Time in Steady State   :     0.00
  Average Iterations per Step :     3.26
  % of Steps Not Converging   :    12.11
  Time Step Frequencies       :
     30.000 - 13.228 sec      :     0.00 %
     13.228 -  5.833 sec      :    20.68 %
      5.833 -  2.572 sec      :    35.16 %
      2.572 -  1.134 sec      :    33.07 %
      1.134 -  0.500 sec      :    11.09 %
  
  
  ***************************
  Subcatchment Runoff Summary
  ***************************
  
  ------------------------------------------------------------------------------------------------------------------------------
                            Total      Total      Total      Total     Imperv       Perv      Total       Total     Peak  Runoff
                           Precip      Runon       Evap      Infil     Runoff     Runoff     Runoff      Runoff   Runoff   Coeff
  Subcatchment                 mm         mm         mm         mm         mm         mm         mm    10^6 ltr      LPS
  ------------------------------------------------------------------------------------------------------------------------------
  sub60                     58.21       0.00       0.00       1.76      50.02       5.23      55.25        0.73   527.90   0.949
  sub61                     58.21       0.00       0.00       2.55      47.19       7.35      54.54        1.00   731.10   0.937
  sub62                     58.21       0.00       0.00       1.17      52.27       3.49      55.76        1.53  1025.55   0.958
  sub63                     58.21       0.00       0.00       4.70      40.36      12.19      52.55        1.19   812.95   0.903
  sub64                     58.21       0.00       0.00       2.37      48.27       6.36      54.63        1.31   826.08   0.939
  sub65                     58.21       0.00       0.00       2.05      49.39       5.51      54.91        1.51   923.58   0.943
  sub66                     58.21       0.00       0.00       5.82      40.25      11.06      51.31        2.39  1186.70   0.881
  sub67                     58.21       0.00       0.00       1.13      52.31       3.53      55.84        1.04   796.17   0.959
  sub68                     58.21       0.00       0.00       2.11      48.88       6.04      54.92        1.51  1053.43   0.943
  sub69                     58.21       0.00       0.00       1.86      49.37       6.87      56.24        2.08  1230.84   0.966
  sub70                     58.21       0.00       0.00       6.25      38.25      13.54      51.80        1.50   665.94   0.890
  sub71                     58.21       0.00       0.00       1.20      52.23       3.46      55.69        1.46   895.98   0.957
  sub72                     58.21       0.00       0.00       1.07      52.73       3.01      55.74        0.77   430.63   0.958
  
  
  ******************
  Node Depth Summary
  ******************
  
  ---------------------------------------------------------------------------------
                                 Average  Maximum  Maximum  Time of Max    Reported
                                   Depth    Depth      HGL   Occurrence   Max Depth
  Node                 Type       Meters   Meters   Meters  days hr:min      Meters
  ---------------------------------------------------------------------------------
  WS02003060           JUNCTION     0.19     0.38     5.32     0  02:46        0.38
  WS02003066           JUNCTION     0.16     0.30     5.85     0  02:47        0.30
  WS02003067           JUNCTION     0.44     0.70     6.02     0  02:46        0.70
  WS02003069           JUNCTION     0.21     0.43     5.01     0  02:48        0.43
  WS02003072           JUNCTION     0.27     0.50     4.87     0  02:48        0.50
  WS02003073           JUNCTION     0.15     0.30     4.36     0  02:32        0.30
  WS02004401           JUNCTION     0.52     0.85     6.85     0  02:39        0.85
  WS02004402           JUNCTION     0.56     0.88     6.84     0  02:39        0.88
  WS02004403           JUNCTION     0.58     0.89     6.82     0  02:39        0.89
  WS02004404           JUNCTION     0.65     0.96     6.81     0  02:39        0.96
  WS02004405           JUNCTION     0.65     0.96     6.81     0  02:40        0.96
  WS02004406           JUNCTION     0.66     0.96     6.79     0  02:40        0.96
  WS02004407           JUNCTION     0.14     0.30     6.61     0  02:40        0.30
  WS02004409           JUNCTION     0.32     0.67     6.44     0  02:40        0.67
  WS02004410           JUNCTION     0.34     0.68     6.40     0  02:45        0.68
  WS02004411           JUNCTION     0.37     0.69     6.37     0  02:41        0.69
  WS02004412           JUNCTION     0.39     0.70     6.34     0  02:46        0.70
  WS02004413           JUNCTION     0.55     0.86     6.33     0  02:46        0.86
  WS02006109           JUNCTION     0.59     1.05     7.67     0  03:15        0.98
  WS02006110           JUNCTION     0.59     1.03     7.61     0  03:15        0.93
  WS02006111           JUNCTION     0.15     0.29     6.99     0  03:17        0.29
  WS02006112           JUNCTION     0.67     1.07     6.95     0  02:32        1.06
  WS02006113           JUNCTION     0.22     0.46     7.35     0  03:17        0.46
  WS02006115           JUNCTION     0.41     0.75     6.89     0  02:41        0.75
  WS02006116           JUNCTION     0.49     0.83     6.87     0  02:41        0.83
  WS02006228           JUNCTION     0.58     1.08     7.73     0  03:15        1.02
  WS02006229           JUNCTION     0.55     1.08     7.78     0  03:15        1.02
  WS02006230           JUNCTION     0.55     1.22     7.96     0  03:15        1.10
  WS02006231           JUNCTION     0.37     0.95     8.07     0  03:15        0.85
  WS02006232           JUNCTION     0.50     1.13     8.17     0  03:15        1.09
  WS02006234           JUNCTION     0.43     1.15     8.31     0  02:02        1.15
  WS02006235           JUNCTION     0.47     1.26     8.42     0  03:17        1.26
  WS02006238           JUNCTION     0.49     1.30     8.44     0  03:17        1.30
  WS02006239           JUNCTION     0.46     1.31     8.52     0  03:17        1.31
  WS02006240           JUNCTION     0.43     1.27     8.57     0  03:17        1.27
  WS02006242           JUNCTION     0.48     1.33     8.59     0  03:17        1.33
  WS02006243           JUNCTION     0.40     1.19     8.61     0  03:17        1.19
  WS02006245           JUNCTION     0.40     1.15     8.63     0  03:17        1.14
  WS02006247           JUNCTION     0.41     1.16     8.66     0  03:17        1.14
  WS02006248           JUNCTION     0.38     1.10     8.69     0  02:19        1.10
  WS02006249           JUNCTION     0.40     1.09     8.69     0  02:01        1.09
  WS02006251           JUNCTION     0.40     1.37     9.04     0  02:01        1.24
  WS02006252           JUNCTION     0.28     1.50     9.74     0  00:00        0.80
  WS02006256           JUNCTION     1.14     2.35     9.28     0  00:00        2.35
  WSF200               JUNCTION     0.13     0.29     5.52     0  02:47        0.29
  YS02001580           JUNCTION     0.13     1.05     9.59     0  01:55        0.87
  YS02001583           JUNCTION     0.17     1.14     9.64     0  01:55        0.83
  YS02001586           JUNCTION     0.27     1.13     9.30     0  01:55        1.13
  YS02001590           JUNCTION     0.38     1.40     9.26     0  01:53        1.37
  YS02001593           JUNCTION     0.31     1.37     9.24     0  01:53        1.31
  YS02001596           JUNCTION     0.43     1.68     9.10     0  01:59        1.68
  YS02001600           JUNCTION     0.51     1.87     9.00     0  01:55        1.86
  YS02001601           JUNCTION     0.70     2.06     8.90     0  01:53        2.06
  YS02001602           JUNCTION     0.60     1.87     8.77     0  01:55        1.87
  YS02001605           JUNCTION     0.56     1.78     8.68     0  01:55        1.78
  YS02001607           JUNCTION     0.53     1.68     8.53     0  01:59        1.64
  YS02001610           JUNCTION     0.57     1.68     8.48     0  01:55        1.68
  YS02001613           JUNCTION     0.53     1.70     8.54     0  01:55        1.69
  YS02001616           JUNCTION     0.46     1.61     8.52     0  01:55        1.60
  YS02001619           JUNCTION     0.44     1.61     8.54     0  01:55        1.61
  YS02001622           JUNCTION     0.43     1.62     8.52     0  01:55        1.57
  YS02001625           JUNCTION     0.68     1.78     8.38     0  01:55        1.78
  YS02001629           JUNCTION     0.57     1.85     8.40     0  01:55        1.85
  YS02001633           JUNCTION     0.64     2.08     8.53     0  01:59        2.08
  YS02001641           JUNCTION     0.61     2.10     8.54     0  01:59        2.10
  YS02001644           JUNCTION     0.60     1.92     8.35     0  01:59        1.92
  YS02001647           JUNCTION     0.39     1.90     8.51     0  01:59        1.90
  YS02001649           JUNCTION     0.44     2.05     8.44     0  01:59        2.05
  YS02001652           JUNCTION     0.33     1.96     8.56     0  02:00        1.87
  YS02001655           JUNCTION     0.25     2.01     8.86     0  01:59        1.58
  YS02001658           JUNCTION     0.17     2.04     9.18     0  01:59        1.37
  YS02001661           JUNCTION     0.18     1.57     8.97     0  02:00        1.25
  YS02001664           JUNCTION     0.07     0.86     8.78     0  02:00        0.73
  YS02001745           JUNCTION     0.09     1.48     9.00     0  01:59        0.86
  YS02001748           JUNCTION     0.16     2.09     9.17     0  01:59        1.25
  YS02001751           JUNCTION     0.21     1.96     8.84     0  01:59        1.42
  YS02001754           JUNCTION     0.29     1.97     8.58     0  01:59        1.66
  YS02001757           JUNCTION     0.46     2.21     8.47     0  01:59        2.21
  YS02001759           JUNCTION     0.40     2.21     8.57     0  01:59        2.21
  YS02001762           JUNCTION     0.39     2.15     8.55     0  01:59        2.15
  YS02001765           JUNCTION     0.37     2.10     8.55     0  01:58        2.10
  YS02001767           JUNCTION     0.37     2.03     8.52     0  01:58        2.03
  YS02001770           JUNCTION     0.38     1.95     8.44     0  01:58        1.95
  YS02001774           JUNCTION     0.44     2.05     8.47     0  01:58        2.05
  YS02001779           JUNCTION     0.27     1.68     8.37     0  01:58        1.68
  YS02001783           JUNCTION     0.31     1.57     7.72     0  01:57        1.23
  YS02001784           JUNCTION     0.31     1.31     7.38     0  01:57        1.18
  YS02001786           JUNCTION     0.26     1.15     7.18     0  01:57        0.87
  YS02001788           JUNCTION     0.19     0.62     6.60     0  01:59        0.62
  YS02001790           JUNCTION     0.22     0.73     6.37     0  02:00        0.72
  YS02001791           JUNCTION     0.14     0.44     5.91     0  02:01        0.42
  YS02001793           JUNCTION     0.07     0.29     5.12     0  02:01        0.27
  YS02001882           JUNCTION     0.38     1.83     8.55     0  01:56        1.83
  YS02001884           JUNCTION     0.47     1.93     8.55     0  01:56        1.90
  YS02001887           JUNCTION     0.54     2.00     8.54     0  01:59        2.00
  YS02001890           JUNCTION     0.57     1.81     8.32     0  01:56        1.81
  YS02001895           JUNCTION     0.35     1.75     8.50     0  01:56        1.56
  YS02001898           JUNCTION     0.36     1.77     8.51     0  01:56        1.61
  YS02001901           JUNCTION     0.46     1.85     8.46     0  01:56        1.74
  YS02001904           JUNCTION     0.44     1.72     8.35     0  01:59        1.72
  YS02001907           JUNCTION     0.75     1.96     8.25     0  01:56        1.96
  YS02001910           JUNCTION     0.56     2.10     8.61     0  01:56        1.88
  YS02001915           JUNCTION     0.38     2.00     8.72     0  01:56        1.76
  YS02001918           JUNCTION     0.22     1.81     8.88     0  01:57        1.45
  YS02001920           JUNCTION     0.30     2.14     9.15     0  01:58        1.51
  YS02001923           JUNCTION     0.17     2.03     9.29     0  01:58        1.31
  YS02001926           JUNCTION     0.19     1.90     9.35     0  01:58        1.18
  YS02001929           JUNCTION     0.11     1.78     9.47     0  01:58        1.00
  YS02006553           JUNCTION     0.75     2.07     8.35     0  01:57        2.03
  YS02006556           JUNCTION     0.73     2.28     8.59     0  01:59        2.28
  YS02006558           JUNCTION     0.77     2.50     8.77     0  01:59        2.50
  YS02006561           JUNCTION     0.19     1.42     8.08     0  01:57        0.90
  YS02163301           JUNCTION     0.59     2.03     8.55     0  01:59        2.03
  YS02163601           JUNCTION     0.67     2.08     8.48     0  01:59        2.08
  YS02164001           JUNCTION     0.60     2.10     8.56     0  01:59        2.10
  CC-1                 OUTFALL      0.00     0.00     0.00     0  00:00        0.00
  CC-2                 OUTFALL      0.00     0.00     0.00     0  00:00        0.00
  JK-1                 OUTFALL      0.00     0.00     0.00     0  00:00        0.00
  JK-2                 OUTFALL      0.00     0.00     0.00     0  00:00        0.00
  WSC                  OUTFALL      0.15     0.30     0.97     0  02:33        0.30
  CC-storage           STORAGE      0.87     1.66     7.16     0  02:28        1.66
  JK-storage           STORAGE      2.25     4.22     5.02     0  02:00        4.21
  
  
  *******************
  Node Inflow Summary
  *******************
  
  -------------------------------------------------------------------------------------------------
                                  Maximum  Maximum                  Lateral       Total        Flow
                                  Lateral    Total  Time of Max      Inflow      Inflow     Balance
                                   Inflow   Inflow   Occurrence      Volume      Volume       Error
  Node                 Type           LPS      LPS  days hr:min    10^6 ltr    10^6 ltr     Percent
  -------------------------------------------------------------------------------------------------
  WS02003060           JUNCTION     16.53   553.29     0  02:47       0.471        3.92       0.055
  WS02003066           JUNCTION      0.00   536.65     0  02:47           0        3.45       0.039
  WS02003067           JUNCTION      0.00   536.66     0  02:46           0        3.46       0.118
  WS02003069           JUNCTION      0.32   553.43     0  02:47     0.00912        3.93       0.096
  WS02003072           JUNCTION      0.00   553.38     0  02:48           0        3.93       0.176
  WS02003073           JUNCTION      1.82   555.15     0  02:48      0.0519        3.97       0.140
  WS02004401           JUNCTION      0.00   538.50     0  02:42           0        3.56       0.284
  WS02004402           JUNCTION      0.00   538.47     0  02:39           0        3.55       0.287
  WS02004403           JUNCTION      0.00   537.92     0  02:43           0        3.54       0.282
  WS02004404           JUNCTION      0.16   537.84     0  02:39     0.00462        3.53       0.250
  WS02004405           JUNCTION      0.04   538.04     0  02:40     0.00109        3.52       0.334
  WS02004406           JUNCTION      0.00   538.16     0  02:40           0        3.51       0.591
  WS02004407           JUNCTION      0.00   537.50     0  02:40           0        3.49       0.027
  WS02004409           JUNCTION      0.00   537.16     0  02:40           0        3.49       0.068
  WS02004410           JUNCTION      0.00   536.94     0  02:40           0        3.49       0.120
  WS02004411           JUNCTION      0.00   536.89     0  02:45           0        3.48       0.154
  WS02004412           JUNCTION      0.00   536.78     0  02:46           0        3.48       0.208
  WS02004413           JUNCTION      0.00   536.87     0  02:46           0        3.47       0.380
  WS02006109           JUNCTION      1.23   549.87     0  03:15      0.0351        3.61       0.261
  WS02006110           JUNCTION      0.00   550.82     0  03:15           0         3.6       0.178
  WS02006111           JUNCTION      0.00   565.36     0  03:17           0        3.59       0.021
  WS02006112           JUNCTION      0.00   544.80     0  03:17           0        3.59       0.561
  WS02006113           JUNCTION      0.00   558.71     0  02:02           0        3.59       0.045
  WS02006115           JUNCTION      0.00   548.91     0  02:41           0        3.57       0.180
  WS02006116           JUNCTION      0.00   540.36     0  02:41           0        3.56       0.116
  WS02006228           JUNCTION      0.00   548.40     0  03:15           0        3.57       0.108
  WS02006229           JUNCTION      0.00   548.18     0  03:15           0        3.58       0.150
  WS02006230           JUNCTION     10.28   578.55     0  03:15       0.293        3.59       0.163
  WS02006231           JUNCTION      0.00   570.26     0  03:14           0        3.29      -0.103
  WS02006232           JUNCTION      0.00   569.19     0  03:14           0         3.3       0.299
  WS02006234           JUNCTION      0.00   565.12     0  03:14           0        3.29      -0.217
  WS02006235           JUNCTION      0.00   558.37     0  03:14           0        3.38       0.247
  WS02006238           JUNCTION      0.00   425.01     0  02:58           0        2.28      -0.140
  WS02006239           JUNCTION      0.00   422.71     0  02:58           0        2.24      -0.080
  WS02006240           JUNCTION      0.00   418.07     0  02:58           0         2.2      -0.072
  WS02006242           JUNCTION      0.00   417.69     0  02:58           0        2.17      -0.044
  WS02006243           JUNCTION      0.00   417.71     0  02:58           0        2.14      -0.085
  WS02006245           JUNCTION      0.00   418.80     0  02:58           0        2.13       0.283
  WS02006247           JUNCTION      0.00   420.10     0  02:58           0        2.13       0.009
  WS02006248           JUNCTION      0.00   420.47     0  02:58           0        2.13       0.092
  WS02006249           JUNCTION      0.00   459.02     0  00:00           0        2.43       0.204
  WS02006251           JUNCTION      0.08   405.22     0  02:02     0.00219        2.43      -0.048
  WS02006252           JUNCTION      0.00   400.00     0  00:00           0        2.43       0.010
  WS02006256           JUNCTION      0.00   300.00     0  00:00           0        1.67      -0.195
  WSF200               JUNCTION      0.00   536.68     0  02:47           0        3.45       0.011
  YS02001580           JUNCTION      0.00   122.97     0  01:55           0     0.00456       2.233
  YS02001583           JUNCTION      0.00   203.78     0  01:55           0      0.0154      -6.104
  YS02001586           JUNCTION    665.94   665.94     0  02:04         1.5        1.51       0.091
  YS02001590           JUNCTION      0.00   318.09     0  02:17           0        1.21      -0.043
  YS02001593           JUNCTION      0.00   317.99     0  02:00           0        1.22      -0.003
  YS02001596           JUNCTION      0.00   318.11     0  02:17           0        1.22      -0.008
  YS02001600           JUNCTION      0.00   317.98     0  02:17           0        1.22       0.005
  YS02001601           JUNCTION   1230.84  1548.27     0  02:03        2.08         3.3       0.012
  YS02001602           JUNCTION      0.00   533.90     0  01:55           0        2.09       0.016
  YS02001605           JUNCTION      0.00   533.73     0  01:55           0        1.98       0.021
  YS02001607           JUNCTION      0.00   533.35     0  01:55           0        1.98       0.093
  YS02001610           JUNCTION      0.00   628.88     0  02:04           0        2.13       0.094
  YS02001613           JUNCTION      0.00   548.88     0  01:55           0        1.72       0.086
  YS02001616           JUNCTION      0.00   551.59     0  01:55           0        1.72       0.020
  YS02001619           JUNCTION   1186.70  1186.70     0  02:04        2.39        3.96      -0.003
  YS02001622           JUNCTION      0.00   932.25     0  02:01           0        3.81      -0.005
  YS02001625           JUNCTION      0.00  1251.12     0  02:04           0        3.96       0.217
  YS02001629           JUNCTION      0.00   940.93     0  01:55           0        3.14       0.016
  YS02001633           JUNCTION    923.78  1394.38     0  01:57        1.52        4.46       0.071
  YS02001641           JUNCTION      0.00  1392.08     0  01:57           0        4.29       0.060
  YS02001644           JUNCTION    826.12  1816.26     0  01:57        1.31        5.59       0.054
  YS02001647           JUNCTION      0.00  1816.63     0  01:57           0        5.27       0.008
  YS02001649           JUNCTION      0.00  2098.56     0  01:57           0        6.47       0.000
  YS02001652           JUNCTION      0.00   925.17     0  02:00           0         1.2      -0.085
  YS02001655           JUNCTION      0.15   925.76     0  02:00     0.00439         1.2      -0.082
  YS02001658           JUNCTION      0.00   926.28     0  02:00           0        1.19      -0.045
  YS02001661           JUNCTION      0.00   925.93     0  02:00           0        1.19       0.034
  YS02001664           JUNCTION    812.95   812.95     0  02:02        1.19        1.19      -0.020
  YS02001745           JUNCTION    527.90   608.72     0  01:59       0.726       0.728       0.177
  YS02001748           JUNCTION      0.04   615.97     0  01:59     0.00128        0.73      -0.326
  YS02001751           JUNCTION      0.01   602.30     0  02:00    0.000313       0.739       0.030
  YS02001754           JUNCTION      0.26   603.32     0  02:00     0.00741       0.753      -0.186
  YS02001757           JUNCTION      0.00  3378.67     0  02:00           0        9.62       0.026
  YS02001759           JUNCTION    731.14  1376.72     0  01:59           1        2.41      -0.022
  YS02001762           JUNCTION      0.00   792.40     0  01:59           0         1.4      -0.023
  YS02001765           JUNCTION      0.00   792.98     0  01:59           0         1.4      -0.016
  YS02001767           JUNCTION      0.54   795.70     0  01:59      0.0152         1.4      -0.007
  YS02001770           JUNCTION   1025.70  1025.70     0  02:02        1.53        1.57      -0.042
  YS02001774           JUNCTION      0.00   451.95     0  01:58           0       0.204       0.340
  YS02001779           JUNCTION      0.01   458.65     0  01:58    0.000142       0.161      -0.539
  YS02001783           JUNCTION      0.00  1170.01     0  01:59           0        3.68       0.004
  YS02001784           JUNCTION      1.06  1171.34     0  01:59      0.0302        3.71       0.014
  YS02001786           JUNCTION      0.06  1173.82     0  01:59      0.0016        3.71       0.019
  YS02001788           JUNCTION      0.07  1176.68     0  01:59     0.00202        3.71       0.009
  YS02001790           JUNCTION      0.15  1173.34     0  02:01     0.00442        3.71       0.023
  YS02001791           JUNCTION      0.00  1299.00     0  02:01           0        3.71      -0.029
  YS02001793           JUNCTION      0.00  1256.57     0  02:01           0        3.71       0.005
  YS02001882           JUNCTION      0.00    57.50     0  01:56           0      0.0127       3.698
  YS02001884           JUNCTION      0.00    72.57     0  01:55           0      0.0484       5.205
  YS02001887           JUNCTION    796.62   798.99     0  02:01        1.05        1.08       0.401
  YS02001890           JUNCTION      0.00   799.92     0  02:01           0        1.04       0.471
  YS02001895           JUNCTION      0.00   517.09     0  02:04           0       0.957       0.164
  YS02001898           JUNCTION      0.00   516.96     0  02:03           0       0.955       0.008
  YS02001901           JUNCTION      0.00   517.33     0  02:04           0       0.958       0.333
  YS02001904           JUNCTION      0.00   517.28     0  02:04           0       0.962       0.278
  YS02001907           JUNCTION      0.00  1873.51     0  02:02           0        3.26       0.549
  YS02001910           JUNCTION      0.00  1359.55     0  02:02           0         2.3       0.308
  YS02001915           JUNCTION    896.00  1358.53     0  02:02        1.46        2.35       0.057
  YS02001918           JUNCTION      0.00   473.91     0  01:58           0       0.925       0.028
  YS02001920           JUNCTION      2.87   476.73     0  01:58      0.0818       0.905       0.097
  YS02001923           JUNCTION      0.04   478.24     0  01:58     0.00107       0.807      -0.122
  YS02001926           JUNCTION      0.05   703.16     0  01:58     0.00149       0.785       0.017
  YS02001929           JUNCTION    430.63   572.95     0  01:58       0.766        0.77      -0.013
  YS02006553           JUNCTION      0.00   799.70     0  02:19           0        2.19       0.542
  YS02006556           JUNCTION      0.00   800.24     0  02:19           0         2.2       0.350
  YS02006558           JUNCTION   1054.31  1170.61     0  01:57        1.54        3.71       0.093
  YS02006561           JUNCTION      0.00  1170.35     0  01:57           0        3.68      -0.004
  YS02163301           JUNCTION      0.00   926.97     0  01:57           0        3.13       0.044
  YS02163601           JUNCTION      0.11  1394.12     0  01:57     0.00313        4.28       0.109
  YS02164001           JUNCTION      0.00  1393.33     0  01:57           0        4.28       0.044
  CC-1                 OUTFALL       0.00   683.00     0  00:00           0         3.9       0.000
  CC-2                 OUTFALL       0.00   683.00     0  00:00           0        3.71       0.000
  JK-1                 OUTFALL       0.00  1000.00     0  00:00           0        2.09       0.000
  JK-2                 OUTFALL       0.00  1000.00     0  00:00           0      0.0484       0.000
  WSC                  OUTFALL       0.00   555.12     0  02:33           0        3.97       0.000
  CC-storage           STORAGE       0.00  3378.85     0  02:00           0        11.8      -0.163
  JK-storage           STORAGE       0.00  1276.08     0  02:08           0        3.86      -0.359
  
  
  **********************
  Node Surcharge Summary
  **********************
  
  Surcharging occurs when water rises above the top of the highest conduit.
  ---------------------------------------------------------------------
                                               Max. Height   Min. Depth
                                   Hours       Above Crown    Below Rim
  Node                 Type      Surcharged         Meters       Meters
  ---------------------------------------------------------------------
  WS02006109           JUNCTION        1.48          0.232        1.588
  WS02006110           JUNCTION        1.13          0.117        1.733
  WS02006112           JUNCTION        1.06          0.070        1.610
  WS02006228           JUNCTION        1.48          0.245        1.955
  WS02006229           JUNCTION        1.49          0.284        2.166
  WS02006230           JUNCTION        1.12          0.140        1.430
  WS02006231           JUNCTION        1.15          0.237        1.293
  WS02006232           JUNCTION        1.50          0.427        1.053
  WS02006234           JUNCTION        1.23          0.433        0.807
  WS02006235           JUNCTION        1.48          0.551        0.739
  WS02006238           JUNCTION        1.49          0.580        0.850
  WS02006239           JUNCTION        1.48          0.567        0.723
  WS02006240           JUNCTION        1.48          0.564        0.826
  WS02006242           JUNCTION        1.49          0.595        0.225
  WS02006243           JUNCTION        1.47          0.480        0.290
  WS02006245           JUNCTION        1.47          0.439        0.411
  WS02006247           JUNCTION        1.47          0.445        0.315
  WS02006248           JUNCTION        1.46          0.380        0.000
  WS02006249           JUNCTION        1.46          0.390        0.000
  WS02006251           JUNCTION        1.17          0.344        0.836
  WS02006252           JUNCTION        1.64          1.100        0.000
  WS02006256           JUNCTION        3.36          2.050        0.000
  YS02001580           JUNCTION        0.55          0.450        0.000
  YS02001583           JUNCTION        0.55          0.500        0.000
  YS02001586           JUNCTION        0.68          0.510        0.000
  YS02001590           JUNCTION        0.74          0.750        0.000
  YS02001593           JUNCTION        0.75          0.753        0.087
  YS02001596           JUNCTION        0.85          0.954        0.116
  YS02001600           JUNCTION        0.98          1.190        0.000
  YS02001601           JUNCTION        1.33          1.440        0.000
  YS02001602           JUNCTION        1.22          1.270        0.000
  YS02001605           JUNCTION        1.16          1.180        0.000
  YS02001607           JUNCTION        0.73          0.680        0.000
  YS02001610           JUNCTION        0.75          0.680        0.000
  YS02001613           JUNCTION        0.73          0.700        0.000
  YS02001616           JUNCTION        0.69          0.610        0.000
  YS02001619           JUNCTION        0.67          0.610        0.000
  YS02001622           JUNCTION        0.67          0.620        0.000
  YS02001625           JUNCTION        0.84          0.780        0.000
  YS02001629           JUNCTION        0.62          0.470        0.000
  YS02001633           JUNCTION        0.86          1.060        0.000
  YS02001641           JUNCTION        0.81          1.100        0.000
  YS02001644           JUNCTION        0.79          0.920        0.000
  YS02001647           JUNCTION        0.60          0.900        0.000
  YS02001649           JUNCTION        0.72          1.050        0.000
  YS02001652           JUNCTION        0.52          0.932        0.198
  YS02001655           JUNCTION        0.38          1.013        0.187
  YS02001658           JUNCTION        0.19          1.040        0.260
  YS02001661           JUNCTION        0.02          0.496        0.894
  YS02001745           JUNCTION        0.01          0.480        0.870
  YS02001748           JUNCTION        0.15          1.012        0.178
  YS02001751           JUNCTION        0.27          0.959        0.241
  YS02001754           JUNCTION        0.44          0.921        0.229
  YS02001757           JUNCTION        0.78          1.210        0.000
  YS02001759           JUNCTION        0.69          1.210        0.000
  YS02001762           JUNCTION        0.66          1.150        0.000
  YS02001765           JUNCTION        0.61          1.100        0.000
  YS02001767           JUNCTION        0.58          1.030        0.000
  YS02001770           JUNCTION        0.55          0.920        0.000
  YS02001774           JUNCTION        0.63          1.050        0.000
  YS02001779           JUNCTION        0.43          0.680        0.000
  YS02001783           JUNCTION        0.50          0.775        0.825
  YS02001784           JUNCTION        0.47          0.509        0.981
  YS02001786           JUNCTION        0.38          0.348        1.082
  YS02001882           JUNCTION        0.45          0.830        0.000
  YS02001884           JUNCTION        0.45          0.870        0.000
  YS02001887           JUNCTION        0.49          0.950        0.000
  YS02001890           JUNCTION        0.50          0.760        0.000
  YS02001895           JUNCTION        0.44          0.750        0.000
  YS02001898           JUNCTION        0.43          0.740        0.000
  YS02001901           JUNCTION        0.47          0.847        0.023
  YS02001904           JUNCTION        0.47          0.716        0.134
  YS02001907           JUNCTION        0.68          0.950        0.000
  YS02001910           JUNCTION        0.52          1.100        0.000
  YS02001915           JUNCTION        0.44          1.000        0.000
  YS02001918           JUNCTION        0.37          0.810        0.000
  YS02001920           JUNCTION        0.38          1.140        0.000
  YS02001923           JUNCTION        0.06          0.820        0.000
  YS02001926           JUNCTION        0.11          0.900        0.000
  YS02001929           JUNCTION        0.01          0.780        0.000
  YS02006553           JUNCTION        0.70          1.069        0.121
  YS02006556           JUNCTION        0.60          1.240        0.110
  YS02006558           JUNCTION        0.59          1.400        0.000
  YS02006561           JUNCTION        0.33          0.616        0.534
  YS02163301           JUNCTION        0.85          1.030        0.000
  YS02163601           JUNCTION        0.89          1.080        0.000
  YS02164001           JUNCTION        0.82          1.100        0.000
  
  
  *********************
  Node Flooding Summary
  *********************
  
  Flooding refers to all water that overflows a node, whether it ponds or not.
  --------------------------------------------------------------------------
                                                             Total   Maximum
                                 Maximum   Time of Max       Flood    Ponded
                        Hours       Rate    Occurrence      Volume     Depth
  Node                 Flooded       LPS   days hr:min    10^6 ltr    Meters
  --------------------------------------------------------------------------
  WS02006248              0.01      0.74      0  02:19       0.000     0.000
  WS02006249              1.16     98.01      0  02:02       0.294     0.000
  WS02006252              0.01    245.63      0  00:00       0.000     0.000
  WS02006256              1.55    293.19      0  00:00       0.505     0.000
  YS02001580              0.01    109.14      0  01:55       0.000     0.000
  YS02001583              0.01    164.55      0  01:55       0.000     0.000
  YS02001586              0.44    348.47      0  02:04       0.281     0.000
  YS02001590              0.01     49.91      0  01:53       0.000     0.000
  YS02001600              0.01      1.32      0  01:59       0.000     0.000
  YS02001601              0.61   1150.41      0  02:03       1.211     0.000
  YS02001602              0.53     63.96      0  01:59       0.105     0.000
  YS02001605              0.01      4.12      0  01:55       0.000     0.000
  YS02001607              0.01      4.56      0  01:59       0.000     0.000
  YS02001610              0.46    628.71      0  02:04       0.557     0.000
  YS02001613              0.01     15.57      0  01:55       0.000     0.000
  YS02001616              0.01     29.41      0  01:55       0.000     0.000
  YS02001619              0.01     27.18      0  01:55       0.000     0.000
  YS02001622              0.01    173.23      0  01:55       0.000     0.000
  YS02001625              0.43   1250.99      0  02:04       0.987     0.000
  YS02001629              0.09    244.52      0  02:01       0.048     0.000
  YS02001633              0.01      2.34      0  01:59       0.000     0.000
  YS02001641              0.01      1.15      0  01:59       0.000     0.000
  YS02001644              0.17    826.69      0  02:01       0.312     0.000
  YS02001647              0.01      2.90      0  01:59       0.000     0.000
  YS02001649              0.01     12.62      0  02:00       0.000     0.000
  YS02001757              0.01      3.31      0  01:59       0.000     0.000
  YS02001759              0.01      5.50      0  01:59       0.000     0.000
  YS02001762              0.01      6.46      0  01:59       0.000     0.000
  YS02001765              0.01     64.16      0  01:58       0.000     0.000
  YS02001767              0.01     16.61      0  01:58       0.000     0.000
  YS02001770              0.01    133.74      0  01:58       0.000     0.000
  YS02001774              0.01     11.81      0  01:58       0.000     0.000
  YS02001779              0.15    427.39      0  02:02       0.144     0.000
  YS02001882              0.01     25.27      0  01:56       0.000     0.000
  YS02001884              0.01      5.69      0  01:56       0.000     0.000
  YS02001887              0.01      0.84      0  01:59       0.000     0.000
  YS02001890              0.15    287.92      0  02:01       0.082     0.000
  YS02001895              0.01     57.40      0  01:56       0.000     0.000
  YS02001898              0.01    119.04      0  01:56       0.000     0.000
  YS02001907              0.32   1768.97      0  02:02       1.061     0.000
  YS02001910              0.01     18.33      0  01:56       0.000     0.000
  YS02001915              0.01    178.83      0  01:56       0.000     0.000
  YS02001918              0.01    272.74      0  01:58       0.004     0.000
  YS02001920              0.01     64.21      0  01:58       0.000     0.000
  YS02001923              0.01    300.06      0  01:58       0.001     0.000
  YS02001926              0.01    127.27      0  01:58       0.001     0.000
  YS02001929              0.01    215.87      0  01:58       0.001     0.000
  YS02006558              0.01      1.27      0  01:59       0.000     0.000
  YS02163301              0.01      0.54      0  01:59       0.000     0.000
  YS02164001              0.01      1.92      0  01:59       0.000     0.000
  
  
  **********************
  Storage Volume Summary
  **********************
  
  ------------------------------------------------------------------------------------------------
                         Average    Avg   Evap  Exfil     Maximum    Max    Time of Max    Maximum
                          Volume   Pcnt   Pcnt   Pcnt      Volume   Pcnt     Occurrence    Outflow
  Storage Unit           1000 m³   Full   Loss   Loss     1000 m³   Full    days hr:min        LPS
  ------------------------------------------------------------------------------------------------
  CC-storage               2.420   37.7    0.0    0.0       4.631   72.2       0  02:28    1783.53
  JK-storage               0.113   38.8    0.0    0.0       0.212   72.7       0  02:00    2300.00
  
  
  ***********************
  Outfall Loading Summary
  ***********************
  
  -----------------------------------------------------------
                         Flow       Avg       Max       Total
                         Freq      Flow      Flow      Volume
  Outfall Node           Pcnt       LPS       LPS    10^6 ltr
  -----------------------------------------------------------
  CC-1                  34.20    683.00    683.00       3.899
  CC-2                  32.33    683.00    683.00       3.713
  JK-1                  15.87   1000.00   1000.00       2.086
  JK-2                   0.25   1000.00   1000.00       0.048
  WSC                   99.93    202.03    555.12       3.966
  -----------------------------------------------------------
  System                36.52   3568.03   3366.23      13.713
  
  
  ********************
  Link Flow Summary
  ********************
  
  -----------------------------------------------------------------------------
                                 Maximum  Time of Max   Maximum    Max/    Max/
                                  |Flow|   Occurrence   |Veloc|    Full    Full
  Link                 Type          LPS  days hr:min     m/sec    Flow   Depth
  -----------------------------------------------------------------------------
  1                    CONDUIT    555.12     0  02:33      2.83    0.19    0.30
  WS02003060WS02003069 CONDUIT    553.11     0  02:47      1.64    0.22    0.34
  WS02003066WSF200     CONDUIT    536.68     0  02:47      2.85    0.09    0.22
  WS02003067WS02003066 CONDUIT    536.65     0  02:47      1.21    0.17    0.42
  WS02003069WS02003072 CONDUIT    553.38     0  02:48      1.37    0.27    0.39
  WS02003072WS02003073 CONDUIT    553.33     0  02:48      1.44    1.20    0.37
  WS02004401WS02004402 CONDUIT    538.47     0  02:39      1.23    0.65    0.86
  WS02004402WS02004403 CONDUIT    537.92     0  02:43      1.24    0.77    0.88
  WS02004403WS02004404 CONDUIT    537.68     0  02:39      1.17    0.39    0.93
  WS02004404WS02004405 CONDUIT    538.00     0  02:40      1.43    5.27    0.96
  WS02004405WS02004406 CONDUIT    538.16     0  02:40      1.39    1.06    0.96
  WS02004406WS02004407 CONDUIT    537.50     0  02:40      1.04    0.24    0.63
  WS02004407WS02004409 CONDUIT    537.16     0  02:40      1.56    0.19    0.48
  WS02004409WS02004410 CONDUIT    536.94     0  02:40      1.04    0.69    0.67
  WS02004410WS02004411 CONDUIT    536.89     0  02:45      0.98    0.73    0.69
  WS02004411WS02004412 CONDUIT    536.78     0  02:46      0.92    0.76    0.69
  WS02004412WS02004413 CONDUIT    536.87     0  02:46      0.87    0.36    0.78
  WS02004413WS02003067 CONDUIT    536.66     0  02:46      1.11    0.23    0.59
  WS02006109WS02006110 CONDUIT    550.82     0  03:15      1.10    1.06    1.00
  WS02006110WS02006113 CONDUIT    558.71     0  02:02      1.34    0.51    0.79
  WS02006111WS02006112 CONDUIT    544.80     0  03:17      1.96    0.26    0.67
  WS02006112WS02006115 CONDUIT    548.91     0  02:41      0.85    0.32    0.87
  WS02006113WS02006111 CONDUIT    565.36     0  03:17      2.47    0.68    0.47
  WS02006115WS02006116 CONDUIT    540.36     0  02:41      1.19    0.69    0.76
  WS02006116WS02004401 CONDUIT    538.50     0  02:42      1.22    0.74    0.84
  WS02006228WS02006109 CONDUIT    548.64     0  03:15      1.09    2.40    1.00
  WS02006229WS02006228 CONDUIT    548.40     0  03:15      1.14    1.82    1.00
  WS02006230WS02006229 CONDUIT    548.18     0  03:15      1.42   12.20    1.00
  WS02006231WS02006230 CONDUIT    568.27     0  03:15      1.55    8.62    1.00
  WS02006232WS02006231 CONDUIT    570.26     0  03:14      1.48    1.19    1.00
  WS02006234WS02006232 CONDUIT    569.19     0  03:14      1.48    1.15    1.00
  WS02006235WS02006234 CONDUIT    565.12     0  03:14      1.47    5.96    1.00
  WS02006238WS02006235 CONDUIT    426.79     0  02:58      1.51    0.95    1.00
  WS02006239WS02006238 CONDUIT    425.01     0  02:58      1.10    1.36    1.00
  WS02006240WS02006239 CONDUIT    422.71     0  02:58      1.24    1.33    1.00
  WS02006242WS02006240 CONDUIT    418.07     0  02:58      1.13    1.66    1.00
  WS02006243WS02006242 CONDUIT    417.69     0  02:58      1.40    0.89    1.00
  WS02006245WS02006243 CONDUIT    417.71     0  02:58      1.45    1.24    1.00
  WS02006247WS02006245 CONDUIT    418.80     0  02:58      1.43    3.32    1.00
  WS02006248WS02006247 CONDUIT    420.10     0  02:58      1.44    0.91    1.00
  WS02006249WS02006248 CONDUIT    420.47     0  02:58      1.36    2.30    1.00
  WS02006251WS02006249 CONDUIT    459.02     0  00:00      1.99    1.32    1.00
  WS02006252WS02006251 CONDUIT    405.14     0  02:02     25.30    1.49    1.00
  WS02006256WS02006235 CONDUIT    288.91     0  00:00      4.23    3.06    1.00
  WSF200WS02003060     CONDUIT    536.76     0  02:47      2.06    0.12    0.28
  YS02001580YS02001583 CONDUIT    122.97     0  01:55      0.75    0.48    1.00
  YS02001583YS02001586 CONDUIT    174.55     0  01:55      0.74    0.26    1.00
  YS02001586YS02001590 CONDUIT    318.09     0  02:17      1.26    0.56    1.00
  YS02001590YS02001593 CONDUIT    317.99     0  02:00      1.12    2.00    1.00
  YS02001593YS02001596 CONDUIT    318.11     0  02:17      1.74    0.50    1.00
  YS02001596YS02001600 CONDUIT    317.98     0  02:17      1.23    0.62    1.00
  YS02001600YS02001601 CONDUIT    317.97     0  02:17      1.12    0.55    1.00
  YS02001601YS02001602 CONDUIT    533.90     0  01:55      1.89    1.93    1.00
  YS02001602YS02001605 CONDUIT    533.73     0  01:55      1.89   11.29    1.00
  YS02001605YS02001607 CONDUIT    533.35     0  01:55      1.89    2.92    1.00
  YS02001607YS02001610 CONDUIT    543.83     0  01:55      0.69    0.52    1.00
  YS02001610YS02001613 CONDUIT    548.88     0  01:55      0.70    0.63    1.00
  YS02001613YS02001616 CONDUIT    551.59     0  01:55      0.71    0.47    1.00
  YS02001616YS02001619 CONDUIT    511.08     0  01:55      0.67    0.89    1.00
  YS02001619YS02001622 CONDUIT    932.25     0  02:01      1.21    1.37    1.00
  YS02001622YS02001625 CONDUIT    940.99     0  01:55      1.20    0.50    1.00
  YS02001625YS02001629 CONDUIT    940.93     0  01:55      1.20    0.45    1.00
  YS02001629YS02163301 CONDUIT    926.97     0  01:57      1.18    1.14    1.00
  YS02001633YS02163601 CONDUIT   1394.01     0  01:57      1.77    1.46    1.00
  YS02001641YS02001644 CONDUIT   1391.48     0  01:57      1.77    4.50    1.00
  YS02001644YS02001647 CONDUIT   1816.63     0  01:57      2.34    1.07    1.00
  YS02001647YS02001649 CONDUIT   1830.83     0  01:57      2.34    0.97    1.00
  YS02001649YS02001757 CONDUIT   2084.66     0  01:57      2.65    1.27    1.00
  YS02001652YS02001649 CONDUIT    926.18     0  02:00      1.18    0.46    1.00
  YS02001655YS02001652 CONDUIT    925.17     0  02:00      1.38    0.45    1.00
  YS02001658YS02001655 CONDUIT    925.60     0  02:00      1.94    0.39    1.00
  YS02001661YS02001658 CONDUIT    926.28     0  02:00      2.34    0.36    1.00
  YS02001664YS02001661 CONDUIT    925.93     0  02:00      2.38    0.29    0.93
  YS02001745YS02001748 CONDUIT    615.93     0  01:59      2.24    0.24    1.00
  YS02001748YS02001751 CONDUIT    602.29     0  02:00      1.75    0.30    1.00
  YS02001751YS02001754 CONDUIT    603.06     0  02:00      1.48    0.29    1.00
  YS02001754YS02001757 CONDUIT    603.60     0  02:00      0.77    0.24    1.00
  YS02001757CaochengTiaoxuchi CONDUIT   3378.85     0  02:00      4.30    1.46    1.00
  YS02001759YS02001757 CONDUIT   1369.48     0  01:59      1.74    0.97    1.00
  YS02001762YS02001759 CONDUIT    792.85     0  01:59      1.01    0.91    1.00
  YS02001765YS02001762 CONDUIT    792.40     0  01:59      1.01    0.74    1.00
  YS02001767YS02001765 CONDUIT    792.98     0  01:59      1.01    1.00    1.00
  YS02001770YS02001767 CONDUIT    795.17     0  01:59      1.01    3.15    1.00
  YS02001774YS02001770 CONDUIT    451.95     0  01:58      0.58    0.29    1.00
  YS02001779YS02001774 CONDUIT    458.64     0  01:58      0.59    0.23    1.00
  YS02001783YS02001784 CONDUIT   1170.28     0  01:59      2.33    1.61    1.00
  YS02001784YS02001785 CONDUIT   1173.77     0  01:59      2.34    2.73    1.00
  YS02001786YS02001788 CONDUIT   1176.61     0  01:59      2.51    2.27    0.89
  YS02001788YS02001790 CONDUIT   1173.18     0  02:01      2.73    0.86    0.84
  YS02001790YS02001791 CONDUIT   1299.00     0  02:01      3.44    1.41    0.71
  YS02001791YS02001793 CONDUIT   1256.57     0  02:01      6.77    0.54    0.44
  YS02001793JiankangQianchi CONDUIT   1276.08     0  02:08      2.55    0.10    0.64
  YS02001882YS02001884 CONDUIT     57.50     0  01:56      0.11    0.07    1.00
  YS02001884YS02001887 CONDUIT     72.57     0  01:55      0.10    0.10    1.00
  YS02001887YS02001890 CONDUIT    799.92     0  02:01      1.02    1.37    1.00
  YS02001890YS02001895 CONDUIT    517.09     0  02:04      0.66    0.24    1.00
  YS02001895YS02001898 CONDUIT    516.96     0  02:03      0.66    0.90    1.00
  YS02001898YS02001901 CONDUIT    517.33     0  02:04      0.66    0.33    1.00
  YS02001901YS02001904 CONDUIT    517.28     0  02:04      0.66    0.80    1.00
  YS02001904YS02001907 CONDUIT    516.92     0  02:04      0.66    0.18    1.00
  YS02001907YS02006553 CONDUIT    799.70     0  02:19      0.89    0.94    1.00
  YS02001910YS02001907 CONDUIT   1359.01     0  02:02      1.73    0.77    1.00
  YS02001915YS02001910 CONDUIT   1359.55     0  02:02      1.73    0.68    1.00
  YS02001918YS02001915 CONDUIT    473.91     0  01:58      0.60    0.26    1.00
  YS02001920YS02001918 CONDUIT    473.86     0  01:58      0.64    0.46    1.00
  YS02001923YS02001920 CONDUIT    478.20     0  01:58      0.70    0.21    1.00
  YS02001926YS02001923 CONDUIT    460.36     0  02:01      0.97    0.66    1.00
  YS02001929YS02001926 CONDUIT    458.56     0  02:02      1.16    0.22    1.00
  YS02006553YS02006556 CONDUIT    800.24     0  02:19      1.02    0.68    1.00
  YS02006556YS02006558 CONDUIT    802.94     0  02:19      1.02    0.63    1.00
  YS02006558YS02006561 CONDUIT   1170.35     0  01:57      4.14    2.59    1.00
  YS02006561YS02001783 CONDUIT   1170.01     0  01:59      2.33    0.61    1.00
  YS02163301YS02001633 CONDUIT    927.15     0  01:57      1.18    0.87    1.00
  YS02163601YS02164001 CONDUIT   1393.33     0  01:57      1.77    1.23    1.00
  YS02164001YS02001641 CONDUIT   1392.08     0  01:57      1.77    1.90    1.00
  CC-R1                PUMP       683.00     0  00:00              1.00
  CC-R2                PUMP       683.00     0  00:00              1.00
  CC-S1                PUMP       200.00     0  00:00              1.00
  CC-S2                PUMP       200.00     0  00:00              1.00
  JK-R1                PUMP      1000.00     0  00:00              1.00
  JK-R2                PUMP      1000.00     0  00:00              1.00
  JK-S                 PUMP       300.00     0  00:00              1.00
  
  
  ***************************
  Flow Classification Summary
  ***************************
  
  -------------------------------------------------------------------------------------
                      Adjusted    ---------- Fraction of Time in Flow Class ---------- 
                       /Actual         Up    Down  Sub   Sup   Up    Down  Norm  Inlet 
  Conduit               Length    Dry  Dry   Dry   Crit  Crit  Crit  Crit  Ltd   Ctrl  
  -------------------------------------------------------------------------------------
  1                       1.00   0.00  0.00  0.00  0.00  1.00  0.00  0.00  0.62  0.00
  WS02003060WS02003069    1.00   0.00  0.00  0.00  0.97  0.03  0.00  0.00  0.77  0.00
  WS02003066WSF200        1.00   0.06  0.00  0.00  0.00  0.94  0.00  0.00  0.78  0.00
  WS02003067WS02003066    1.00   0.05  0.01  0.00  0.94  0.00  0.00  0.00  0.00  0.00
  WS02003069WS02003072    1.00   0.00  0.00  0.00  0.99  0.01  0.00  0.00  0.80  0.00
  WS02003072WS02003073    1.00   0.00  0.00  0.00  0.00  0.00  0.00  1.00  0.00  0.00
  WS02004401WS02004402    1.00   0.02  0.00  0.00  0.98  0.00  0.00  0.00  0.00  0.00
  WS02004402WS02004403    1.00   0.02  0.00  0.00  0.98  0.00  0.00  0.00  0.00  0.00
  WS02004403WS02004404    1.00   0.00  0.03  0.00  0.97  0.00  0.00  0.00  0.00  0.00
  WS02004404WS02004405    1.00   0.00  0.00  0.00  1.00  0.00  0.00  0.00  0.01  0.00
  WS02004405WS02004406    1.00   0.00  0.00  0.00  1.00  0.00  0.00  0.00  0.00  0.00
  WS02004406WS02004407    1.00   0.00  0.03  0.00  0.96  0.00  0.00  0.00  0.00  0.00
  WS02004407WS02004409    1.00   0.04  0.00  0.00  0.95  0.01  0.00  0.00  0.95  0.00
  WS02004409WS02004410    1.00   0.04  0.00  0.00  0.96  0.00  0.00  0.00  0.00  0.00
  WS02004410WS02004411    1.00   0.04  0.00  0.00  0.96  0.00  0.00  0.00  0.00  0.00
  WS02004411WS02004412    1.00   0.04  0.00  0.00  0.96  0.00  0.00  0.00  0.00  0.00
  WS02004412WS02004413    1.00   0.04  0.00  0.00  0.96  0.00  0.00  0.00  0.00  0.00
  WS02004413WS02003067    1.00   0.04  0.01  0.00  0.00  0.00  0.95  0.00  0.00  0.00
  WS02006109WS02006110    1.00   0.00  0.01  0.00  0.98  0.00  0.01  0.00  0.00  0.00
  WS02006110WS02006113    1.00   0.01  0.01  0.00  0.98  0.00  0.00  0.00  0.00  0.00
  WS02006111WS02006112    1.00   0.02  0.00  0.00  0.98  0.00  0.00  0.00  0.98  0.00
  WS02006112WS02006115    1.00   0.02  0.00  0.00  0.97  0.00  0.00  0.00  0.00  0.00
  WS02006113WS02006111    1.00   0.02  0.00  0.00  0.00  0.98  0.00  0.00  0.10  0.00
  WS02006115WS02006116    1.00   0.02  0.00  0.00  0.97  0.00  0.00  0.01  0.00  0.00
  WS02006116WS02004401    1.00   0.02  0.00  0.00  0.98  0.00  0.00  0.00  0.00  0.00
  WS02006228WS02006109    1.00   0.00  0.00  0.00  1.00  0.00  0.00  0.00  0.00  0.00
  WS02006229WS02006228    1.00   0.00  0.00  0.00  0.99  0.00  0.00  0.01  0.00  0.00
  WS02006230WS02006229    1.00   0.00  0.00  0.00  0.99  0.00  0.00  0.01  0.00  0.00
  WS02006231WS02006230    1.00   0.00  0.00  0.00  0.19  0.00  0.80  0.00  0.00  0.00
  WS02006232WS02006231    1.00   0.00  0.00  0.00  0.99  0.00  0.01  0.00  0.00  0.00
  WS02006234WS02006232    1.00   0.00  0.00  0.00  1.00  0.00  0.00  0.00  0.43  0.00
  WS02006235WS02006234    1.00   0.00  0.00  0.00  0.51  0.00  0.49  0.00  0.00  0.00
  WS02006238WS02006235    1.00   0.00  0.00  0.00  1.00  0.00  0.00  0.00  0.00  0.00
  WS02006239WS02006238    1.00   0.00  0.00  0.00  1.00  0.00  0.00  0.00  0.58  0.00
  WS02006240WS02006239    1.00   0.00  0.00  0.00  0.37  0.00  0.00  0.63  0.02  0.00
  WS02006242WS02006240    1.00   0.00  0.00  0.00  1.00  0.00  0.00  0.00  0.00  0.00
  WS02006243WS02006242    1.00   0.00  0.00  0.00  0.99  0.00  0.00  0.00  0.72  0.00
  WS02006245WS02006243    1.00   0.00  0.00  0.00  0.43  0.00  0.00  0.57  0.00  0.00
  WS02006247WS02006245    1.00   0.00  0.00  0.00  0.99  0.00  0.00  0.01  0.00  0.00
  WS02006248WS02006247    1.00   0.00  0.00  0.00  0.99  0.00  0.00  0.01  0.18  0.00
  WS02006249WS02006248    1.00   0.00  0.00  0.00  0.26  0.00  0.74  0.00  0.00  0.00
  WS02006251WS02006249    1.00   0.00  0.00  0.00  0.99  0.00  0.00  0.00  0.76  0.00
  WS02006252WS02006251    1.00   0.00  0.22  0.00  0.15  0.00  0.63  0.00  0.00  0.00
  WS02006256WS02006235    1.00   0.00  0.00  0.00  0.99  0.01  0.00  0.00  0.00  0.00
  WSF200WS02003060        1.00   0.00  0.06  0.00  0.55  0.38  0.00  0.00  0.72  0.00
  YS02001580YS02001583    1.00   0.24  0.57  0.00  0.19  0.00  0.00  0.00  0.67  0.00
  YS02001583YS02001586    1.00   0.42  0.34  0.00  0.24  0.00  0.00  0.00  0.67  0.00
  YS02001586YS02001590    1.00   0.13  0.00  0.00  0.42  0.04  0.00  0.41  0.36  0.00
  YS02001590YS02001593    1.00   0.13  0.01  0.00  0.11  0.00  0.76  0.00  0.00  0.00
  YS02001593YS02001596    1.00   0.14  0.00  0.00  0.12  0.01  0.00  0.73  0.02  0.00
  YS02001596YS02001600    1.00   0.14  0.00  0.00  0.19  0.01  0.00  0.66  0.05  0.00
  YS02001600YS02001601    1.00   0.13  0.01  0.00  0.86  0.00  0.00  0.00  0.61  0.00
  YS02001601YS02001602    1.00   0.13  0.01  0.00  0.86  0.00  0.00  0.00  0.00  0.00
  YS02001602YS02001605    1.00   0.14  0.00  0.00  0.86  0.00  0.00  0.00  0.00  0.00
  YS02001605YS02001607    1.00   0.14  0.00  0.00  0.86  0.00  0.00  0.00  0.00  0.00
  YS02001607YS02001610    1.00   0.13  0.01  0.00  0.86  0.00  0.00  0.00  0.02  0.00
  YS02001610YS02001613    1.00   0.13  0.00  0.00  0.87  0.00  0.00  0.00  0.01  0.00
  YS02001613YS02001616    1.00   0.13  0.00  0.00  0.87  0.00  0.00  0.00  0.01  0.00
  YS02001616YS02001619    1.00   0.13  0.00  0.00  0.87  0.00  0.00  0.00  0.00  0.00
  YS02001619YS02001622    1.00   0.13  0.00  0.00  0.87  0.00  0.00  0.00  0.28  0.00
  YS02001622YS02001625    1.00   0.13  0.00  0.00  0.87  0.00  0.00  0.00  0.05  0.00
  YS02001625YS02001629    1.00   0.13  0.05  0.00  0.15  0.00  0.67  0.00  0.00  0.00
  YS02001629YS02163301    1.00   0.16  0.01  0.00  0.83  0.00  0.00  0.00  0.00  0.00
  YS02001633YS02163601    1.00   0.00  0.01  0.00  0.99  0.00  0.00  0.00  0.15  0.00
  YS02001641YS02001644    1.00   0.00  0.01  0.00  0.99  0.00  0.00  0.00  0.00  0.00
  YS02001644YS02001647    1.00   0.00  0.18  0.00  0.82  0.00  0.00  0.00  0.00  0.00
  YS02001647YS02001649    1.00   0.00  0.18  0.00  0.53  0.29  0.00  0.00  0.57  0.00
  YS02001649YS02001757    1.00   0.00  0.00  0.00  0.69  0.31  0.00  0.00  0.48  0.00
  YS02001652YS02001649    1.00   0.00  0.00  0.00  0.96  0.04  0.00  0.00  0.76  0.00
  YS02001655YS02001652    1.00   0.00  0.00  0.00  0.17  0.01  0.00  0.82  0.04  0.00
  YS02001658YS02001655    1.00   0.00  0.14  0.00  0.65  0.20  0.00  0.00  0.69  0.00
  YS02001661YS02001658    1.00   0.14  0.00  0.00  0.49  0.36  0.00  0.00  0.70  0.00
  YS02001664YS02001661    1.00   0.13  0.00  0.00  0.78  0.09  0.00  0.00  0.85  0.00
  YS02001745YS02001748    1.00   0.00  0.00  0.00  0.09  0.01  0.00  0.90  0.04  0.00
  YS02001748YS02001751    1.00   0.00  0.00  0.00  0.83  0.17  0.00  0.00  0.77  0.00
  YS02001751YS02001754    1.00   0.00  0.00  0.00  0.15  0.00  0.00  0.85  0.02  0.00
  YS02001754YS02001757    1.00   0.00  0.00  0.00  1.00  0.00  0.00  0.00  0.84  0.00
  YS02001757CaochengTiaoxuchi    1.00   0.00  0.00  0.00  1.00  0.00  0.00  0.00  0.82  0.00
  YS02001759YS02001757    1.00   0.00  0.00  0.00  1.00  0.00  0.00  0.00  0.61  0.00
  YS02001762YS02001759    1.00   0.00  0.00  0.00  1.00  0.00  0.00  0.00  0.05  0.00
  YS02001765YS02001762    1.00   0.00  0.00  0.00  1.00  0.00  0.00  0.00  0.76  0.00
  YS02001767YS02001765    1.00   0.00  0.00  0.00  1.00  0.00  0.00  0.00  0.00  0.00
  YS02001770YS02001767    1.00   0.00  0.00  0.00  1.00  0.00  0.00  0.00  0.00  0.00
  YS02001774YS02001770    1.00   0.00  0.14  0.00  0.70  0.00  0.16  0.00  0.03  0.00
  YS02001779YS02001774    1.00   0.00  0.00  0.00  1.00  0.00  0.00  0.00  0.79  0.00
  YS02001783YS02001784    1.00   0.00  0.19  0.00  0.81  0.00  0.00  0.00  0.56  0.00
  YS02001784YS02001785    1.00   0.00  0.00  0.00  1.00  0.00  0.00  0.00  0.18  0.00
  YS02001786YS02001788    1.00   0.00  0.00  0.00  0.80  0.20  0.00  0.00  0.00  0.00
  YS02001788YS02001790    1.00   0.00  0.00  0.00  0.23  0.77  0.00  0.00  0.82  0.00
  YS02001790YS02001791    1.00   0.00  0.00  0.00  0.01  0.99  0.00  0.00  0.16  0.00
  YS02001791YS02001793    1.00   0.00  0.00  0.00  0.00  1.00  0.00  0.00  0.01  0.00
  YS02001793JiankangQianchi    1.00   0.00  0.00  0.00  0.97  0.03  0.00  0.00  0.98  0.00
  YS02001882YS02001884    1.00   0.16  0.01  0.00  0.83  0.00  0.00  0.00  0.00  0.00
  YS02001884YS02001887    1.00   0.06  0.05  0.00  0.89  0.00  0.00  0.00  0.00  0.00
  YS02001887YS02001890    1.00   0.00  0.00  0.00  0.97  0.00  0.03  0.00  0.00  0.00
  YS02001890YS02001895    1.00   0.00  0.17  0.00  0.83  0.00  0.00  0.00  0.00  0.00
  YS02001895YS02001898    1.00   0.17  0.00  0.00  0.81  0.00  0.02  0.00  0.00  0.00
  YS02001898YS02001901    1.00   0.17  0.00  0.00  0.82  0.00  0.00  0.00  0.01  0.00
  YS02001901YS02001904    1.00   0.17  0.00  0.00  0.83  0.00  0.00  0.00  0.00  0.00
  YS02001904YS02001907    1.00   0.00  0.17  0.00  0.83  0.00  0.00  0.00  0.00  0.00
  YS02001907YS02006553    1.00   0.00  0.02  0.00  0.98  0.00  0.00  0.00  0.00  0.00
  YS02001910YS02001907    1.00   0.00  0.00  0.00  0.97  0.00  0.00  0.03  0.12  0.00
  YS02001915YS02001910    1.00   0.00  0.00  0.00  0.96  0.04  0.00  0.00  0.17  0.00
  YS02001918YS02001915    1.00   0.00  0.01  0.00  0.98  0.02  0.00  0.00  0.76  0.00
  YS02001920YS02001918    1.00   0.00  0.01  0.00  0.99  0.00  0.00  0.00  0.00  0.00
  YS02001923YS02001920    1.00   0.00  0.00  0.00  1.00  0.00  0.00  0.00  0.93  0.00
  YS02001926YS02001923    1.00   0.00  0.07  0.00  0.06  0.00  0.87  0.00  0.00  0.00
  YS02001929YS02001926    1.00   0.00  0.13  0.00  0.87  0.00  0.00  0.00  0.82  0.00
  YS02006553YS02006556    1.00   0.01  0.00  0.00  0.99  0.00  0.00  0.00  0.03  0.00
  YS02006556YS02006558    1.00   0.00  0.00  0.00  1.00  0.00  0.00  0.00  0.00  0.00
  YS02006558YS02006561    1.00   0.19  0.00  0.00  0.05  0.76  0.00  0.00  0.19  0.00
  YS02006561YS02001783    1.00   0.19  0.00  0.00  0.08  0.73  0.00  0.00  0.69  0.00
  YS02163301YS02001633    1.00   0.00  0.16  0.00  0.84  0.00  0.00  0.00  0.00  0.00
  YS02163601YS02164001    1.00   0.00  0.08  0.00  0.92  0.00  0.00  0.00  0.00  0.00
  YS02164001YS02001641    1.00   0.01  0.07  0.00  0.92  0.00  0.00  0.00  0.06  0.00
  
  
  *************************
  Conduit Surcharge Summary
  *************************
  
  ----------------------------------------------------------------------------
                                                           Hours        Hours 
                         --------- Hours Full --------   Above Full   Capacity
  Conduit                Both Ends  Upstream  Dnstream   Normal Flow   Limited
  ----------------------------------------------------------------------------
  WS02003072WS02003073        0.01      0.01      0.01      1.18         0.01
  WS02004404WS02004405        0.01      0.01      0.01      2.01         0.01
  WS02004405WS02004406        0.01      0.01      0.01      1.03         0.01
  WS02006109WS02006110        1.13      1.13      1.50      1.15         0.01
  WS02006110WS02006113        0.01      0.01      1.50      0.01         0.01
  WS02006111WS02006112        0.01      0.01      1.57      0.01         0.01
  WS02006112WS02006115        0.01      0.01      1.06      0.01         0.01
  WS02006228WS02006109        1.48      1.50      1.48      1.69         1.48
  WS02006229WS02006228        1.48      1.49      1.48      1.61         1.48
  WS02006230WS02006229        1.52      1.55      1.52      2.51         1.52
  WS02006231WS02006230        1.12      1.12      1.16      2.28         0.01
  WS02006232WS02006231        1.15      1.15      1.50      1.17         0.01
  WS02006234WS02006232        1.47      1.47      1.50      1.16         1.17
  WS02006235WS02006234        1.23      1.23      1.48      2.15         0.01
  WS02006238WS02006235        1.49      1.49      1.50      0.01         0.01
  WS02006239WS02006238        1.49      1.49      1.49      1.55         1.38
  WS02006240WS02006239        1.48      1.48      1.48      1.55         1.28
  WS02006242WS02006240        1.48      1.48      1.51      1.61         0.01
  WS02006243WS02006242        1.47      1.47      1.49      0.01         0.01
  WS02006245WS02006243        1.47      1.47      1.47      0.42         0.50
  WS02006247WS02006245        1.47      1.47      1.47      1.71         1.47
  WS02006248WS02006247        1.46      1.46      1.47      0.01         0.01
  WS02006249WS02006248        1.46      1.46      1.46      1.70         0.01
  WS02006251WS02006249        1.46      1.46      1.46      1.62         1.44
  WS02006252WS02006251        1.64      1.64      1.64      1.64         0.01
  WS02006256WS02006235        2.22      2.23      3.35      1.55         0.01
  YS02001580YS02001583        0.55      0.55      0.60      0.01         0.01
  YS02001583YS02001586        0.55      0.55      0.68      0.01         0.01
  YS02001586YS02001590        0.68      0.68      0.74      0.01         0.01
  YS02001590YS02001593        0.75      0.75      0.76      0.79         0.01
  YS02001593YS02001596        0.76      0.76      0.85      0.01         0.01
  YS02001596YS02001600        0.89      0.89      0.98      0.01         0.01
  YS02001600YS02001601        1.04      1.04      1.33      0.01         0.01
  YS02001601YS02001602        1.22      1.22      1.37      0.98         0.01
  YS02001602YS02001605        1.16      1.16      1.22      2.14         0.01
  YS02001605YS02001607        1.12      1.16      1.12      1.30         1.12
  YS02001607YS02001610        0.73      0.73      0.75      0.01         0.01
  YS02001610YS02001613        0.73      0.73      0.75      0.01         0.01
  YS02001613YS02001616        0.69      0.69      0.73      0.01         0.01
  YS02001616YS02001619        0.67      0.67      0.69      0.01         0.01
  YS02001619YS02001622        0.67      0.67      0.67      0.75         0.64
  YS02001622YS02001625        0.67      0.67      0.84      0.01         0.01
  YS02001625YS02001629        0.62      0.62      0.84      0.01         0.01
  YS02001629YS02163301        0.84      0.84      0.85      0.09         0.14
  YS02001633YS02163601        0.86      0.86      0.89      0.30         0.29
  YS02001641YS02001644        0.79      0.81      0.79      1.40         0.78
  YS02001644YS02001647        0.60      0.60      0.79      0.04         0.01
  YS02001647YS02001649        0.60      0.60      0.72      0.01         0.01
  YS02001649YS02001757        0.71      0.72      0.78      0.06         0.03
  YS02001652YS02001649        0.55      0.55      0.72      0.01         0.01
  YS02001655YS02001652        0.38      0.38      0.52      0.01         0.01
  YS02001658YS02001655        0.19      0.19      0.38      0.01         0.01
  YS02001661YS02001658        0.02      0.02      0.19      0.01         0.01
  YS02001664YS02001661        0.01      0.01      0.06      0.01         0.01
  YS02001745YS02001748        0.01      0.01      0.15      0.01         0.01
  YS02001748YS02001751        0.18      0.18      0.27      0.01         0.01
  YS02001751YS02001754        0.27      0.27      0.44      0.01         0.01
  YS02001754YS02001757        0.48      0.48      0.78      0.01         0.01
  YS02001757CaochengTiaoxuchi        0.77      0.78      1.24      0.33         0.29
  YS02001759YS02001757        0.69      0.69      0.78      0.01         0.01
  YS02001762YS02001759        0.66      0.66      0.69      0.01         0.01
  YS02001765YS02001762        0.61      0.61      0.66      0.01         0.01
  YS02001767YS02001765        0.58      0.58      0.61      0.01         0.02
  YS02001770YS02001767        0.57      0.57      0.58      0.48         0.40
  YS02001774YS02001770        0.55      0.55      0.63      0.01         0.01
  YS02001779YS02001774        0.43      0.43      0.63      0.01         0.01
  YS02001783YS02001784        0.47      0.50      0.47      0.63         0.47
  YS02001784YS02001785        0.38      0.47      0.38      0.83         0.38
  YS02001786YS02001788        0.01      0.38      0.01      0.71         0.01
  YS02001790YS02001791        0.01      0.01      0.01      0.46         0.01
  YS02001793JiankangQianchi        0.01      0.01      7.58      0.01         0.01
  YS02001882YS02001884        0.45      0.45      0.45      0.01         0.01
  YS02001884YS02001887        0.48      0.48      0.49      0.01         0.01
  YS02001887YS02001890        0.50      0.50      0.51      0.11         0.01
  YS02001890YS02001895        0.44      0.44      0.53      0.01         0.01
  YS02001895YS02001898        0.43      0.43      0.44      0.01         0.01
  YS02001898YS02001901        0.44      0.44      0.47      0.01         0.01
  YS02001901YS02001904        0.47      0.47      0.47      0.01         0.01
  YS02001904YS02001907        0.47      0.47      0.70      0.01         0.01
  YS02001907YS02006553        0.84      0.84      0.90      0.01         0.01
  YS02001910YS02001907        0.52      0.52      0.68      0.01         0.01
  YS02001915YS02001910        0.44      0.44      0.52      0.01         0.01
  YS02001918YS02001915        0.37      0.37      0.44      0.01         0.01
  YS02001920YS02001918        0.37      0.37      0.38      0.01         0.01
  YS02001923YS02001920        0.32      0.32      0.38      0.01         0.01
  YS02001926YS02001923        0.06      0.06      0.11      0.01         0.01
  YS02001929YS02001926        0.01      0.01      0.11      0.01         0.01
  YS02006553YS02006556        0.60      0.60      0.70      0.01         0.01
  YS02006556YS02006558        0.66      0.66      0.71      0.01         0.01
  YS02006558YS02006561        0.40      0.59      0.40      0.79         0.40
  YS02006561YS02001783        0.33      0.33      0.50      0.01         0.01
  YS02163301YS02001633        0.85      0.85      0.88      0.01         0.01
  YS02163601YS02164001        0.82      0.82      0.89      0.05         0.01
  YS02164001YS02001641        0.81      0.82      0.81      0.65         0.59
  
  
  ***************
  Pumping Summary
  ***************
  
  ---------------------------------------------------------------------------------------------------------
                                                  Min       Avg       Max     Total     Power    % Time Off
                        Percent   Number of      Flow      Flow      Flow    Volume     Usage    Pump Curve
  Pump                 Utilized   Start-Ups       LPS       LPS       LPS  10^6 ltr     Kw-hr    Low   High
  ---------------------------------------------------------------------------------------------------------
  CC-R1                   20.03           2      0.00    683.00    683.00     3.899     71.98    0.0   25.2
  CC-R2                   19.07           2      0.00    683.00    683.00     3.712     68.52    0.0   26.4
  CC-S1                   21.80           2      0.00    200.00    200.00     1.242      7.16    0.0    0.0
  CC-S2                   20.75           2      0.00    200.00    200.00     1.183      6.80    0.0    0.0
  JK-R1                    7.32           5      0.00   1000.00   1000.00     2.085     20.09    0.0    0.0
  JK-R2                    0.17           1      0.00   1000.00   1000.00     0.047      0.36    0.0    0.0
  JK-S                    19.55           4      0.00    300.00    300.00     1.672     27.02    0.0    0.0
  

  Analysis begun on:  Thu Jan 16 14:25:27 2025
  Analysis ended on:  Thu Jan 16 14:25:28 2025
  Total elapsed time: 00:00:01