
  EPA STORM WATER MANAGEMENT MODEL - VERSION 5.2 (Build 5.2.4)
  PYSWMM TOOLKIT API - VERSION v1.0 (2023-11-27)
  ------------------------------------------------------------

  WARNING 04: minimum elevation drop used for Conduit WS02004404WS02004405
  WARNING 03: negative offset ignored for Link YS02001904YS02001907
  
  ****************
  Analysis Options
  ****************
  Flow Units ............... LPS
  Process Models:
    Rainfall/Runoff ........ YES
    RDII ................... NO
    Snowmelt ............... NO
    Groundwater ............ NO
    Flow Routing ........... YES
    Ponding Allowed ........ NO
    Water Quality .......... NO
  Infiltration Method ...... HORTON
  Flow Routing Method ...... DYNWAVE
  Surcharge Method ......... EXTRAN
  Starting Date ............ 08/28/2015 08:00:00
  Ending Date .............. 08/28/2015 16:00:00
  Antecedent Dry Days ...... 8.0
  Report Time Step ......... 00:01:00
  Wet Time Step ............ 00:01:00
  Dry Time Step ............ 00:01:00
  Routing Time Step ........ 30.00 sec
  Variable Time Step ....... YES
  Maximum Trials ........... 8
  Number of Threads ........ 4
  Head Tolerance ........... 0.001500 m
  
  
  **************************        Volume         Depth
  Runoff Quantity Continuity     hectare-m            mm
  **************************     ---------       -------
  Total Precipitation ......         2.375        71.587
  Evaporation Loss .........         0.000         0.000
  Infiltration Loss ........         0.101         3.041
  Surface Runoff ...........         2.241        67.563
  Final Storage ............         0.033         0.997
  Continuity Error (%) .....        -0.020
  
  
  **************************        Volume        Volume
  Flow Routing Continuity        hectare-m      10^6 ltr
  **************************     ---------     ---------
  Dry Weather Inflow .......         0.025         0.248
  Wet Weather Inflow .......         2.241        22.410
  Groundwater Inflow .......         0.000         0.000
  RDII Inflow ..............         0.000         0.000
  External Inflow ..........         0.083         0.825
  External Outflow .........         1.569        15.692
  Flooding Loss ............         0.802         8.022
  Evaporation Loss .........         0.000         0.000
  Exfiltration Loss ........         0.000         0.000
  Initial Stored Volume ....         0.243         2.431
  Final Stored Volume ......         0.225         2.246
  Continuity Error (%) .....        -0.176
  
  
  *************************
  Highest Continuity Errors
  *************************
  Node YS02001884 (4.84%)
  Node YS02001583 (-4.35%)
  
  
  ***************************
  Time-Step Critical Elements
  ***************************
  Link WS02004404WS02004405 (31.96%)
  Link YS02001791YS02001793 (14.86%)
  Link WS02006238WS02006235 (14.50%)
  Link WS02003066WSF200 (10.38%)
  Link YS02006556YS02006558 (8.42%)
  
  
  ********************************
  Highest Flow Instability Indexes
  ********************************
  Link WS02006113WS02006111 (30)
  Link WS02006238WS02006235 (27)
  Link WS02006111WS02006112 (23)
  Link WS02006110WS02006113 (20)
  Link WS02006252WS02006251 (19)
  
  
  *********************************
  Most Frequent Nonconverging Nodes
  *********************************
  Node CC-1 (8.92%)
  Node CC-2 (8.92%)
  Node JK-1 (8.92%)
  Node JK-2 (8.92%)
  Node WSC (8.92%)
  
  
  *************************
  Routing Time Step Summary
  *************************
  Minimum Time Step           :     0.02 sec
  Average Time Step           :     3.35 sec
  Maximum Time Step           :     6.43 sec
  % of Time in Steady State   :     0.00
  Average Iterations per Step :     3.16
  % of Steps Not Converging   :     8.92
  Time Step Frequencies       :
     30.000 - 13.228 sec      :     0.00 %
     13.228 -  5.833 sec      :    20.10 %
      5.833 -  2.572 sec      :    31.84 %
      2.572 -  1.134 sec      :    36.60 %
      1.134 -  0.500 sec      :    11.46 %
  
  
  ***************************
  Subcatchment Runoff Summary
  ***************************
  
  ------------------------------------------------------------------------------------------------------------------------------
                            Total      Total      Total      Total     Imperv       Perv      Total       Total     Peak  Runoff
                           Precip      Runon       Evap      Infil     Runoff     Runoff     Runoff      Runoff   Runoff   Coeff
  Subcatchment                 mm         mm         mm         mm         mm         mm         mm    10^6 ltr      LPS
  ------------------------------------------------------------------------------------------------------------------------------
  sub60                     71.59       0.00       0.00       1.83      61.79       6.76      68.56        0.90   589.32   0.958
  sub61                     71.59       0.00       0.00       2.65      58.29       9.52      67.81        1.24   818.09   0.947
  sub62                     71.59       0.00       0.00       1.22      64.57       4.51      69.08        1.89  1157.39   0.965
  sub63                     71.59       0.00       0.00       4.88      49.86      15.88      65.74        1.49   926.24   0.918
  sub64                     71.59       0.00       0.00       2.47      59.64       8.27      67.91        1.63   944.87   0.949
  sub65                     71.59       0.00       0.00       2.14      61.03       7.17      68.20        1.88  1059.50   0.953
  sub66                     71.59       0.00       0.00       6.05      49.75      14.71      64.46        3.01  1403.05   0.900
  sub67                     71.59       0.00       0.00       1.17      64.62       4.56      69.17        1.29   881.49   0.966
  sub68                     71.59       0.00       0.00       2.19      60.38       7.83      68.21        1.88  1186.32   0.953
  sub69                     71.59       0.00       0.00       1.96      60.74       8.78      69.52        2.57  1410.10   0.971
  sub70                     71.59       0.00       0.00       6.54      47.08      17.80      64.88        1.87   789.71   0.906
  sub71                     71.59       0.00       0.00       1.25      64.53       4.48      69.01        1.80  1022.88   0.964
  sub72                     71.59       0.00       0.00       1.11      65.17       3.90      69.07        0.95   498.77   0.965
  
  
  ******************
  Node Depth Summary
  ******************
  
  ---------------------------------------------------------------------------------
                                 Average  Maximum  Maximum  Time of Max    Reported
                                   Depth    Depth      HGL   Occurrence   Max Depth
  Node                 Type       Meters   Meters   Meters  days hr:min      Meters
  ---------------------------------------------------------------------------------
  WS02003060           JUNCTION     0.21     0.38     5.32     0  03:01        0.38
  WS02003066           JUNCTION     0.17     0.30     5.85     0  03:00        0.30
  WS02003067           JUNCTION     0.46     0.70     6.02     0  03:00        0.70
  WS02003069           JUNCTION     0.23     0.43     5.01     0  02:58        0.43
  WS02003072           JUNCTION     0.29     0.50     4.87     0  02:59        0.50
  WS02003073           JUNCTION     0.16     0.30     4.36     0  02:59        0.30
  WS02004401           JUNCTION     0.54     0.85     6.85     0  02:56        0.85
  WS02004402           JUNCTION     0.58     0.88     6.84     0  02:56        0.88
  WS02004403           JUNCTION     0.60     0.89     6.82     0  02:56        0.89
  WS02004404           JUNCTION     0.67     0.96     6.81     0  02:56        0.96
  WS02004405           JUNCTION     0.67     0.96     6.81     0  02:56        0.96
  WS02004406           JUNCTION     0.68     0.96     6.79     0  02:57        0.96
  WS02004407           JUNCTION     0.15     0.30     6.61     0  02:57        0.30
  WS02004409           JUNCTION     0.34     0.67     6.44     0  02:57        0.67
  WS02004410           JUNCTION     0.36     0.68     6.40     0  02:57        0.68
  WS02004411           JUNCTION     0.39     0.69     6.37     0  02:59        0.69
  WS02004412           JUNCTION     0.41     0.70     6.34     0  02:59        0.70
  WS02004413           JUNCTION     0.57     0.86     6.33     0  03:00        0.86
  WS02006109           JUNCTION     0.61     1.03     7.64     0  01:57        0.98
  WS02006110           JUNCTION     0.61     0.98     7.56     0  01:57        0.92
  WS02006111           JUNCTION     0.16     0.29     6.99     0  02:44        0.29
  WS02006112           JUNCTION     0.70     1.06     6.95     0  02:37        1.06
  WS02006113           JUNCTION     0.24     0.46     7.35     0  01:59        0.46
  WS02006115           JUNCTION     0.43     0.75     6.89     0  02:55        0.75
  WS02006116           JUNCTION     0.51     0.83     6.87     0  02:56        0.83
  WS02006228           JUNCTION     0.61     1.06     7.71     0  01:57        1.02
  WS02006229           JUNCTION     0.59     1.07     7.77     0  01:57        1.04
  WS02006230           JUNCTION     0.59     1.20     7.94     0  01:57        1.10
  WS02006231           JUNCTION     0.40     1.47     8.60     0  01:57        1.47
  WS02006232           JUNCTION     0.54     1.19     8.23     0  01:57        1.19
  WS02006234           JUNCTION     0.47     1.17     8.32     0  01:57        1.17
  WS02006235           JUNCTION     0.52     1.22     8.38     0  01:57        1.19
  WS02006238           JUNCTION     0.54     1.24     8.39     0  01:57        1.22
  WS02006239           JUNCTION     0.51     1.22     8.43     0  01:57        1.19
  WS02006240           JUNCTION     0.48     1.20     8.49     0  01:59        1.20
  WS02006242           JUNCTION     0.53     1.25     8.52     0  01:59        1.25
  WS02006243           JUNCTION     0.45     1.15     8.57     0  01:59        1.15
  WS02006245           JUNCTION     0.45     1.14     8.63     0  02:47        1.14
  WS02006247           JUNCTION     0.46     1.17     8.67     0  02:47        1.17
  WS02006248           JUNCTION     0.43     1.10     8.69     0  02:47        1.10
  WS02006249           JUNCTION     0.45     1.09     8.69     0  01:56        1.09
  WS02006251           JUNCTION     0.45     1.39     9.06     0  01:56        1.12
  WS02006252           JUNCTION     0.29     1.50     9.74     0  00:00        0.68
  WS02006256           JUNCTION     1.24     2.35     9.28     0  00:00        2.35
  WSF200               JUNCTION     0.14     0.29     5.52     0  03:00        0.29
  YS02001580           JUNCTION     0.15     1.05     9.59     0  01:52        0.79
  YS02001583           JUNCTION     0.19     1.14     9.64     0  01:52        0.82
  YS02001586           JUNCTION     0.30     1.13     9.30     0  01:52        1.13
  YS02001590           JUNCTION     0.42     1.38     9.24     0  01:52        1.38
  YS02001593           JUNCTION     0.35     1.31     9.17     0  01:52        1.29
  YS02001596           JUNCTION     0.48     1.67     9.09     0  01:52        1.66
  YS02001600           JUNCTION     0.58     1.87     9.00     0  01:52        1.86
  YS02001601           JUNCTION     0.77     2.06     8.90     0  01:51        2.06
  YS02001602           JUNCTION     0.67     1.87     8.77     0  01:51        1.87
  YS02001605           JUNCTION     0.62     1.78     8.68     0  01:51        1.78
  YS02001607           JUNCTION     0.58     1.68     8.53     0  01:52        1.66
  YS02001610           JUNCTION     0.62     1.68     8.48     0  01:51        1.68
  YS02001613           JUNCTION     0.58     1.68     8.53     0  01:51        1.67
  YS02001616           JUNCTION     0.52     1.61     8.52     0  01:51        1.61
  YS02001619           JUNCTION     0.49     1.61     8.54     0  01:51        1.61
  YS02001622           JUNCTION     0.48     1.62     8.52     0  01:51        1.59
  YS02001625           JUNCTION     0.73     1.78     8.38     0  01:52        1.78
  YS02001629           JUNCTION     0.63     1.85     8.40     0  01:52        1.85
  YS02001633           JUNCTION     0.70     2.08     8.53     0  01:59        2.08
  YS02001641           JUNCTION     0.67     1.96     8.39     0  01:59        1.96
  YS02001644           JUNCTION     0.66     1.92     8.35     0  01:57        1.92
  YS02001647           JUNCTION     0.45     1.79     8.40     0  02:00        1.79
  YS02001649           JUNCTION     0.51     2.05     8.44     0  02:00        2.05
  YS02001652           JUNCTION     0.39     1.99     8.59     0  02:00        1.99
  YS02001655           JUNCTION     0.30     1.78     8.63     0  02:00        1.78
  YS02001658           JUNCTION     0.22     1.70     8.85     0  01:57        1.44
  YS02001661           JUNCTION     0.21     1.38     8.78     0  01:58        1.17
  YS02001664           JUNCTION     0.08     0.64     8.56     0  02:01        0.63
  YS02001745           JUNCTION     0.11     0.87     8.38     0  02:01        0.85
  YS02001748           JUNCTION     0.21     1.65     8.72     0  01:57        1.29
  YS02001751           JUNCTION     0.26     1.63     8.51     0  01:57        1.46
  YS02001754           JUNCTION     0.35     1.73     8.34     0  01:57        1.73
  YS02001757           JUNCTION     0.53     2.14     8.40     0  02:00        2.14
  YS02001759           JUNCTION     0.47     2.21     8.57     0  02:00        2.21
  YS02001762           JUNCTION     0.46     2.15     8.55     0  02:00        2.15
  YS02001765           JUNCTION     0.44     2.04     8.49     0  02:00        2.04
  YS02001767           JUNCTION     0.43     2.03     8.52     0  02:00        2.03
  YS02001770           JUNCTION     0.44     1.95     8.44     0  01:55        1.95
  YS02001774           JUNCTION     0.50     2.03     8.45     0  02:00        2.03
  YS02001779           JUNCTION     0.33     1.68     8.37     0  01:55        1.68
  YS02001783           JUNCTION     0.34     1.32     7.46     0  01:55        1.25
  YS02001784           JUNCTION     0.34     1.15     7.22     0  01:55        1.14
  YS02001786           JUNCTION     0.28     0.91     6.94     0  01:55        0.89
  YS02001788           JUNCTION     0.21     0.62     6.60     0  02:01        0.62
  YS02001790           JUNCTION     0.24     0.73     6.37     0  02:02        0.72
  YS02001791           JUNCTION     0.15     0.44     5.91     0  02:00        0.43
  YS02001793           JUNCTION     0.08     0.30     5.13     0  02:18        0.27
  YS02001882           JUNCTION     0.41     1.71     8.43     0  01:59        1.71
  YS02001884           JUNCTION     0.50     1.78     8.40     0  01:59        1.78
  YS02001887           JUNCTION     0.57     2.00     8.54     0  02:00        2.00
  YS02001890           JUNCTION     0.60     1.81     8.32     0  01:55        1.81
  YS02001895           JUNCTION     0.38     1.59     8.34     0  02:00        1.59
  YS02001898           JUNCTION     0.39     1.59     8.33     0  01:55        1.58
  YS02001901           JUNCTION     0.50     1.70     8.31     0  01:55        1.69
  YS02001904           JUNCTION     0.48     1.66     8.29     0  01:59        1.66
  YS02001907           JUNCTION     0.78     1.96     8.25     0  01:55        1.96
  YS02001910           JUNCTION     0.59     2.03     8.53     0  02:00        2.03
  YS02001915           JUNCTION     0.42     2.00     8.72     0  02:00        2.00
  YS02001918           JUNCTION     0.25     1.81     8.88     0  01:56        1.78
  YS02001920           JUNCTION     0.32     2.14     9.15     0  01:56        1.76
  YS02001923           JUNCTION     0.19     2.03     9.29     0  01:56        1.35
  YS02001926           JUNCTION     0.22     1.90     9.35     0  01:56        1.17
  YS02001929           JUNCTION     0.13     1.78     9.47     0  01:56        0.94
  YS02006553           JUNCTION     0.79     2.08     8.36     0  02:00        2.08
  YS02006556           JUNCTION     0.76     2.16     8.47     0  02:00        2.16
  YS02006558           JUNCTION     0.80     2.40     8.66     0  02:00        2.40
  YS02006561           JUNCTION     0.21     1.04     7.70     0  01:55        0.91
  YS02163301           JUNCTION     0.65     1.97     8.48     0  01:59        1.97
  YS02163601           JUNCTION     0.73     2.05     8.45     0  01:59        2.05
  YS02164001           JUNCTION     0.66     1.96     8.42     0  01:59        1.96
  CC-1                 OUTFALL      0.00     0.00     0.00     0  00:00        0.00
  CC-2                 OUTFALL      0.00     0.00     0.00     0  00:00        0.00
  JK-1                 OUTFALL      0.00     0.00     0.00     0  00:00        0.00
  JK-2                 OUTFALL      0.00     0.00     0.00     0  00:00        0.00
  WSC                  OUTFALL      0.16     0.30     0.97     0  03:00        0.30
  CC-storage           STORAGE      0.93     1.79     7.29     0  02:31        1.79
  JK-storage           STORAGE      2.18     4.23     5.03     0  02:18        4.17
  
  
  *******************
  Node Inflow Summary
  *******************
  
  -------------------------------------------------------------------------------------------------
                                  Maximum  Maximum                  Lateral       Total        Flow
                                  Lateral    Total  Time of Max      Inflow      Inflow     Balance
                                   Inflow   Inflow   Occurrence      Volume      Volume       Error
  Node                 Type           LPS      LPS  days hr:min    10^6 ltr    10^6 ltr     Percent
  -------------------------------------------------------------------------------------------------
  WS02003060           JUNCTION     16.53   553.57     0  03:00       0.471        4.41       0.043
  WS02003066           JUNCTION      0.00   536.65     0  03:00           0        3.94       0.032
  WS02003067           JUNCTION      0.00   536.61     0  03:00           0        3.95       0.101
  WS02003069           JUNCTION      0.32   553.50     0  03:01     0.00912        4.42       0.076
  WS02003072           JUNCTION      0.00   553.32     0  02:58           0        4.42       0.142
  WS02003073           JUNCTION      1.82   555.11     0  02:59      0.0519        4.46       0.109
  WS02004401           JUNCTION      0.00   539.02     0  02:56           0        4.04       0.246
  WS02004402           JUNCTION      0.00   538.42     0  02:56           0        4.03       0.249
  WS02004403           JUNCTION      0.00   538.23     0  02:56           0        4.02       0.245
  WS02004404           JUNCTION      0.16   538.07     0  02:56     0.00462        4.02       0.214
  WS02004405           JUNCTION      0.04   538.06     0  02:56     0.00109        4.01       0.293
  WS02004406           JUNCTION      0.00   538.25     0  02:56           0           4       0.514
  WS02004407           JUNCTION      0.00   537.57     0  02:57           0        3.98       0.021
  WS02004409           JUNCTION      0.00   537.20     0  02:57           0        3.98       0.053
  WS02004410           JUNCTION      0.00   536.89     0  02:57           0        3.98       0.098
  WS02004411           JUNCTION      0.00   536.90     0  02:59           0        3.97       0.128
  WS02004412           JUNCTION      0.00   536.67     0  02:59           0        3.97       0.175
  WS02004413           JUNCTION      0.00   536.99     0  02:59           0        3.96       0.322
  WS02006109           JUNCTION      1.23   543.91     0  01:57      0.0351        4.09       0.230
  WS02006110           JUNCTION      0.00   544.11     0  01:57           0        4.08       0.156
  WS02006111           JUNCTION      0.00   560.85     0  03:05           0        4.07       0.016
  WS02006112           JUNCTION      0.00   543.26     0  02:44           0        4.07       0.489
  WS02006113           JUNCTION      0.00   556.61     0  01:57           0        4.08       0.040
  WS02006115           JUNCTION      0.00   545.00     0  02:55           0        4.05       0.155
  WS02006116           JUNCTION      0.00   540.39     0  02:55           0        4.05       0.100
  WS02006228           JUNCTION      0.00   543.45     0  01:57           0        4.06       0.097
  WS02006229           JUNCTION      0.00   542.65     0  01:57           0        4.07       0.132
  WS02006230           JUNCTION     10.28   551.14     0  01:57       0.293        4.07       0.146
  WS02006231           JUNCTION      0.00   537.74     0  01:57           0        3.78      -0.093
  WS02006232           JUNCTION      0.00   537.68     0  01:57           0        3.79       0.244
  WS02006234           JUNCTION      0.00   536.61     0  01:57           0        3.78      -0.188
  WS02006235           JUNCTION      0.00   535.57     0  01:57           0        3.87       0.218
  WS02006238           JUNCTION      0.00   418.94     0  03:19           0         2.6      -0.128
  WS02006239           JUNCTION      0.00   419.48     0  03:19           0        2.56      -0.074
  WS02006240           JUNCTION      0.00   417.68     0  03:19           0        2.52      -0.065
  WS02006242           JUNCTION      0.00   418.34     0  03:19           0        2.48      -0.046
  WS02006243           JUNCTION      0.00   417.62     0  03:19           0        2.46      -0.073
  WS02006245           JUNCTION      0.00   416.51     0  03:19           0        2.45       0.249
  WS02006247           JUNCTION      0.00   416.81     0  03:19           0        2.45       0.001
  WS02006248           JUNCTION      0.00   417.11     0  03:19           0        2.45       0.076
  WS02006249           JUNCTION      0.00   459.02     0  00:00           0         2.8       0.179
  WS02006251           JUNCTION      0.08   407.38     0  01:56     0.00219         2.8      -0.014
  WS02006252           JUNCTION      0.00   400.00     0  00:00           0         2.8      -0.020
  WS02006256           JUNCTION      0.00   300.00     0  00:00           0        1.93      -0.145
  WSF200               JUNCTION      0.00   536.72     0  03:00           0        3.94       0.008
  YS02001580           JUNCTION      0.00   121.73     0  01:52           0     0.00428       0.535
  YS02001583           JUNCTION      0.00   152.03     0  01:52           0      0.0154      -4.166
  YS02001586           JUNCTION    789.71   789.72     0  02:04        1.87        1.89       0.063
  YS02001590           JUNCTION      0.00   318.17     0  01:59           0        1.42      -0.026
  YS02001593           JUNCTION      0.00   318.15     0  01:59           0        1.42      -0.014
  YS02001596           JUNCTION      0.00   318.03     0  02:00           0        1.42      -0.024
  YS02001600           JUNCTION      0.00   318.05     0  02:00           0        1.42       0.006
  YS02001601           JUNCTION   1410.10  1727.51     0  02:03        2.57           4       0.014
  YS02001602           JUNCTION      0.00   516.05     0  01:51           0        2.38       0.015
  YS02001605           JUNCTION      0.00   516.12     0  01:51           0        2.24       0.018
  YS02001607           JUNCTION      0.00   516.02     0  01:51           0        2.24       0.079
  YS02001610           JUNCTION      0.00   781.56     0  02:04           0        2.53       0.081
  YS02001613           JUNCTION      0.00   524.01     0  01:51           0           2       0.076
  YS02001616           JUNCTION      0.00   522.12     0  01:51           0           2       0.006
  YS02001619           JUNCTION   1403.05  1403.05     0  02:04        3.01        4.71      -0.006
  YS02001622           JUNCTION      0.00   968.71     0  02:02           0        4.41      -0.006
  YS02001625           JUNCTION      0.00  1385.20     0  02:04           0        4.68       0.198
  YS02001629           JUNCTION      0.00   920.76     0  01:51           0        3.52       0.009
  YS02001633           JUNCTION   1059.70  1353.76     0  01:54        1.88        5.09       0.061
  YS02001641           JUNCTION      0.00  1351.24     0  01:54           0        4.79       0.053
  YS02001644           JUNCTION    944.91  1748.49     0  01:55        1.63        6.41       0.047
  YS02001647           JUNCTION      0.00  1751.15     0  01:55           0         5.8       0.004
  YS02001649           JUNCTION      0.00  1940.18     0  01:53           0         7.3       0.001
  YS02001652           JUNCTION      0.00   955.10     0  02:01           0         1.5      -0.075
  YS02001655           JUNCTION      0.15   954.60     0  02:01     0.00439         1.5      -0.018
  YS02001658           JUNCTION      0.00   954.26     0  02:01           0        1.49      -0.056
  YS02001661           JUNCTION      0.00   952.43     0  02:01           0        1.49       0.003
  YS02001664           JUNCTION    926.24   926.24     0  02:02        1.49        1.49      -0.007
  YS02001745           JUNCTION    589.32   589.32     0  02:02       0.901       0.901       0.162
  YS02001748           JUNCTION      0.04   605.60     0  02:01     0.00128       0.901      -0.277
  YS02001751           JUNCTION      0.01   606.60     0  02:01    0.000313        0.91       0.101
  YS02001754           JUNCTION      0.26   605.99     0  02:01     0.00741       0.924      -0.201
  YS02001757           JUNCTION      0.00  3202.68     0  01:58           0        11.1       0.011
  YS02001759           JUNCTION    818.13  1340.15     0  02:00        1.25        2.87      -0.015
  YS02001762           JUNCTION      0.00   696.83     0  01:58           0        1.63      -0.014
  YS02001765           JUNCTION      0.00   696.88     0  01:58           0        1.63      -0.002
  YS02001767           JUNCTION      0.54   697.52     0  01:58      0.0152        1.63      -0.005
  YS02001770           JUNCTION   1157.54  1157.54     0  02:02         1.9        1.94      -0.028
  YS02001774           JUNCTION      0.00   670.61     0  02:02           0       0.345       0.210
  YS02001779           JUNCTION      0.01   671.07     0  02:02    0.000142       0.302      -0.150
  YS02001783           JUNCTION      0.00  1178.61     0  02:00           0        4.32       0.003
  YS02001784           JUNCTION      1.06  1175.66     0  02:00      0.0302        4.35       0.012
  YS02001786           JUNCTION      0.06  1176.82     0  02:00      0.0016        4.35       0.016
  YS02001788           JUNCTION      0.07  1178.06     0  02:00     0.00202        4.35       0.007
  YS02001790           JUNCTION      0.15  1178.67     0  02:00     0.00442        4.36       0.035
  YS02001791           JUNCTION      0.00  1289.47     0  01:57           0        4.35      -0.037
  YS02001793           JUNCTION      0.00  1243.21     0  01:57           0        4.36       0.004
  YS02001882           JUNCTION      0.00    40.26     0  01:53           0      0.0128       3.974
  YS02001884           JUNCTION      0.00    75.09     0  01:53           0      0.0488       5.086
  YS02001887           JUNCTION    881.94   883.45     0  02:01         1.3        1.33       0.320
  YS02001890           JUNCTION      0.00   884.41     0  02:01           0        1.29       0.385
  YS02001895           JUNCTION      0.00   516.38     0  02:07           0        1.16       0.138
  YS02001898           JUNCTION      0.00   516.57     0  02:07           0        1.16       0.005
  YS02001901           JUNCTION      0.00   516.38     0  02:07           0        1.16       0.275
  YS02001904           JUNCTION      0.00   516.38     0  02:07           0        1.16       0.220
  YS02001907           JUNCTION      0.00  2071.74     0  02:02           0           4       0.451
  YS02001910           JUNCTION      0.00  1531.74     0  02:02           0        2.84       0.251
  YS02001915           JUNCTION   1022.90  1532.05     0  02:02        1.81        2.88       0.041
  YS02001918           JUNCTION      0.00   510.74     0  02:02           0         1.1      -0.013
  YS02001920           JUNCTION      2.87   510.93     0  02:02      0.0818        1.08       0.075
  YS02001923           JUNCTION      0.04   506.87     0  02:02     0.00107       0.982      -0.077
  YS02001926           JUNCTION      0.05   505.99     0  02:02     0.00149       0.961      -0.079
  YS02001929           JUNCTION    498.77   498.77     0  02:03        0.95       0.951      -0.047
  YS02006553           JUNCTION      0.00   796.10     0  02:20           0        2.47       0.477
  YS02006556           JUNCTION      0.00   796.18     0  02:21           0        2.48       0.313
  YS02006558           JUNCTION   1187.20  1187.20     0  02:02         1.9        4.35       0.075
  YS02006561           JUNCTION      0.00  1176.99     0  02:00           0        4.32      -0.004
  YS02163301           JUNCTION      0.00   918.18     0  01:54           0        3.51       0.036
  YS02163601           JUNCTION      0.11  1353.42     0  01:54     0.00313        4.78       0.098
  YS02164001           JUNCTION      0.00  1353.00     0  01:54           0        4.78       0.034
  CC-1                 OUTFALL       0.00   683.00     0  00:00           0        4.48       0.000
  CC-2                 OUTFALL       0.00   683.00     0  00:00           0        4.29       0.000
  JK-1                 OUTFALL       0.00  1000.00     0  00:00           0        2.42       0.000
  JK-2                 OUTFALL       0.00  1000.00     0  00:00           0      0.0484       0.000
  WSC                  OUTFALL       0.00   555.07     0  03:00           0        4.46       0.000
  CC-storage           STORAGE       0.00  3206.78     0  02:00           0        13.3      -0.150
  JK-storage           STORAGE       0.00  1292.32     0  02:00           0        4.51      -0.117
  
  
  **********************
  Node Surcharge Summary
  **********************
  
  Surcharging occurs when water rises above the top of the highest conduit.
  ---------------------------------------------------------------------
                                               Max. Height   Min. Depth
                                   Hours       Above Crown    Below Rim
  Node                 Type      Surcharged         Meters       Meters
  ---------------------------------------------------------------------
  WS02006109           JUNCTION        1.74          0.206        1.614
  WS02006110           JUNCTION        1.36          0.070        1.780
  WS02006112           JUNCTION        1.31          0.064        1.616
  WS02006228           JUNCTION        1.73          0.228        1.972
  WS02006229           JUNCTION        1.74          0.271        2.179
  WS02006230           JUNCTION        1.36          0.117        1.453
  WS02006231           JUNCTION        1.37          0.763        0.767
  WS02006232           JUNCTION        1.76          0.492        0.988
  WS02006234           JUNCTION        1.43          0.445        0.795
  WS02006235           JUNCTION        1.73          0.507        0.783
  WS02006238           JUNCTION        1.74          0.523        0.907
  WS02006239           JUNCTION        1.73          0.477        0.813
  WS02006240           JUNCTION        1.73          0.489        0.901
  WS02006242           JUNCTION        1.74          0.521        0.299
  WS02006243           JUNCTION        1.73          0.443        0.327
  WS02006245           JUNCTION        1.72          0.431        0.419
  WS02006247           JUNCTION        1.72          0.455        0.305
  WS02006248           JUNCTION        1.72          0.380        0.000
  WS02006249           JUNCTION        1.71          0.390        0.000
  WS02006251           JUNCTION        1.38          0.356        0.824
  WS02006252           JUNCTION        1.89          1.100        0.000
  WS02006256           JUNCTION        3.63          2.050        0.000
  YS02001580           JUNCTION        0.70          0.450        0.000
  YS02001583           JUNCTION        0.71          0.500        0.000
  YS02001586           JUNCTION        0.86          0.510        0.000
  YS02001590           JUNCTION        0.94          0.731        0.019
  YS02001593           JUNCTION        0.94          0.691        0.149
  YS02001596           JUNCTION        1.06          0.943        0.127
  YS02001600           JUNCTION        1.23          1.190        0.000
  YS02001601           JUNCTION        1.53          1.440        0.000
  YS02001602           JUNCTION        1.44          1.270        0.000
  YS02001605           JUNCTION        1.40          1.180        0.000
  YS02001607           JUNCTION        0.94          0.680        0.000
  YS02001610           JUNCTION        0.97          0.680        0.000
  YS02001613           JUNCTION        0.93          0.685        0.015
  YS02001616           JUNCTION        0.89          0.610        0.000
  YS02001619           JUNCTION        0.88          0.610        0.000
  YS02001622           JUNCTION        0.88          0.620        0.000
  YS02001625           JUNCTION        1.07          0.780        0.000
  YS02001629           JUNCTION        0.82          0.470        0.000
  YS02001633           JUNCTION        1.10          1.060        0.000
  YS02001641           JUNCTION        1.06          0.955        0.145
  YS02001644           JUNCTION        1.03          0.920        0.000
  YS02001647           JUNCTION        0.80          0.787        0.113
  YS02001649           JUNCTION        0.95          1.050        0.000
  YS02001652           JUNCTION        0.74          0.959        0.171
  YS02001655           JUNCTION        0.56          0.780        0.420
  YS02001658           JUNCTION        0.29          0.703        0.597
  YS02001661           JUNCTION        0.07          0.308        1.082
  YS02001748           JUNCTION        0.23          0.567        0.623
  YS02001751           JUNCTION        0.41          0.627        0.573
  YS02001754           JUNCTION        0.65          0.683        0.467
  YS02001757           JUNCTION        1.03          1.142        0.068
  YS02001759           JUNCTION        0.93          1.210        0.000
  YS02001762           JUNCTION        0.90          1.150        0.000
  YS02001765           JUNCTION        0.84          1.045        0.055
  YS02001767           JUNCTION        0.81          1.030        0.000
  YS02001770           JUNCTION        0.78          0.920        0.000
  YS02001774           JUNCTION        0.87          1.030        0.020
  YS02001779           JUNCTION        0.64          0.680        0.000
  YS02001783           JUNCTION        0.61          0.520        1.080
  YS02001784           JUNCTION        0.58          0.350        1.140
  YS02001786           JUNCTION        0.47          0.112        1.318
  YS02001882           JUNCTION        0.55          0.711        0.119
  YS02001884           JUNCTION        0.56          0.722        0.148
  YS02001887           JUNCTION        0.60          0.950        0.000
  YS02001890           JUNCTION        0.61          0.760        0.000
  YS02001895           JUNCTION        0.54          0.592        0.158
  YS02001898           JUNCTION        0.53          0.562        0.178
  YS02001901           JUNCTION        0.58          0.700        0.170
  YS02001904           JUNCTION        0.57          0.655        0.195
  YS02001907           JUNCTION        0.84          0.950        0.000
  YS02001910           JUNCTION        0.64          1.027        0.073
  YS02001915           JUNCTION        0.55          1.000        0.000
  YS02001918           JUNCTION        0.46          0.810        0.000
  YS02001920           JUNCTION        0.47          1.140        0.000
  YS02001923           JUNCTION        0.14          0.820        0.000
  YS02001926           JUNCTION        0.17          0.900        0.000
  YS02001929           JUNCTION        0.01          0.780        0.000
  YS02006553           JUNCTION        0.86          1.079        0.111
  YS02006556           JUNCTION        0.74          1.123        0.227
  YS02006558           JUNCTION        0.73          1.297        0.103
  YS02006561           JUNCTION        0.42          0.241        0.909
  YS02163301           JUNCTION        1.08          0.965        0.065
  YS02163601           JUNCTION        1.15          1.047        0.033
  YS02164001           JUNCTION        1.06          0.958        0.142
  
  
  *********************
  Node Flooding Summary
  *********************
  
  Flooding refers to all water that overflows a node, whether it ponds or not.
  --------------------------------------------------------------------------
                                                             Total   Maximum
                                 Maximum   Time of Max       Flood    Ponded
                        Hours       Rate    Occurrence      Volume     Depth
  Node                 Flooded       LPS   days hr:min    10^6 ltr    Meters
  --------------------------------------------------------------------------
  WS02006248              0.01      0.08      0  02:47       0.000     0.000
  WS02006249              1.38    102.35      0  01:56       0.351     0.000
  WS02006252              0.01    245.63      0  00:00       0.000     0.000
  WS02006256              1.78    293.19      0  00:00       0.588     0.000
  YS02001580              0.01    107.54      0  01:52       0.000     0.000
  YS02001583              0.01     15.35      0  01:52       0.000     0.000
  YS02001586              0.56    472.14      0  02:04       0.452     0.000
  YS02001600              0.01      0.22      0  01:52       0.000     0.000
  YS02001601              0.77   1329.60      0  02:03       1.616     0.000
  YS02001602              0.68     62.16      0  01:59       0.137     0.000
  YS02001605              0.01      2.82      0  01:52       0.000     0.000
  YS02001607              0.01     12.86      0  01:52       0.000     0.000
  YS02001610              0.59    781.46      0  02:04       0.831     0.000
  YS02001616              0.01     54.30      0  01:52       0.000     0.000
  YS02001619              0.01     18.17      0  01:51       0.000     0.000
  YS02001622              0.01     80.79      0  01:51       0.000     0.000
  YS02001625              0.56   1385.15      0  02:04       1.454     0.000
  YS02001629              0.14    147.15      0  02:00       0.047     0.000
  YS02001633              0.01      1.90      0  02:00       0.000     0.000
  YS02001644              0.25   1239.41      0  02:02       0.603     0.000
  YS02001649              0.01      1.00      0  02:00       0.000     0.000
  YS02001759              0.01      1.02      0  02:00       0.000     0.000
  YS02001762              0.01      0.92      0  02:00       0.000     0.000
  YS02001767              0.01      0.51      0  02:00       0.000     0.000
  YS02001770              0.01     86.48      0  01:55       0.000     0.000
  YS02001779              0.22    671.04      0  02:02       0.284     0.000
  YS02001887              0.01      1.85      0  02:00       0.000     0.000
  YS02001890              0.20    368.77      0  02:01       0.129     0.000
  YS02001907              0.39   2071.60      0  02:02       1.523     0.000
  YS02001915              0.01      1.86      0  02:00       0.000     0.000
  YS02001918              0.01    121.87      0  01:56       0.001     0.000
  YS02001920              0.01     31.08      0  01:56       0.000     0.000
  YS02001923              0.01    130.21      0  01:56       0.000     0.000
  YS02001926              0.01     40.33      0  01:56       0.000     0.000
  YS02001929              0.01    215.43      0  01:56       0.001     0.000
  
  
  **********************
  Storage Volume Summary
  **********************
  
  ------------------------------------------------------------------------------------------------
                         Average    Avg   Evap  Exfil     Maximum    Max    Time of Max    Maximum
                          Volume   Pcnt   Pcnt   Pcnt      Volume   Pcnt     Occurrence    Outflow
  Storage Unit           1000 m³   Full   Loss   Loss     1000 m³   Full    days hr:min        LPS
  ------------------------------------------------------------------------------------------------
  CC-storage               2.584   40.3    0.0    0.0       4.988   77.8       0  02:31    1783.53
  JK-storage               0.110   37.6    0.0    0.0       0.213   73.0       0  02:18    2300.00
  
  
  ***********************
  Outfall Loading Summary
  ***********************
  
  -----------------------------------------------------------
                         Flow       Avg       Max       Total
                         Freq      Flow      Flow      Volume
  Outfall Node           Pcnt       LPS       LPS    10^6 ltr
  -----------------------------------------------------------
  CC-1                  37.59    683.00    683.00       4.476
  CC-2                  35.90    683.00    683.00       4.293
  JK-1                  17.41   1000.00   1000.00       2.418
  JK-2                   0.25   1000.00   1000.00       0.048
  WSC                   99.93    222.44    555.07       4.458
  -----------------------------------------------------------
  System                38.21   3588.44   3366.23      15.692
  
  
  ********************
  Link Flow Summary
  ********************
  
  -----------------------------------------------------------------------------
                                 Maximum  Time of Max   Maximum    Max/    Max/
                                  |Flow|   Occurrence   |Veloc|    Full    Full
  Link                 Type          LPS  days hr:min     m/sec    Flow   Depth
  -----------------------------------------------------------------------------
  1                    CONDUIT    555.07     0  03:00      2.83    0.19    0.30
  WS02003060WS02003069 CONDUIT    553.18     0  03:01      1.64    0.22    0.34
  WS02003066WSF200     CONDUIT    536.72     0  03:00      2.85    0.09    0.22
  WS02003067WS02003066 CONDUIT    536.65     0  03:00      1.21    0.17    0.42
  WS02003069WS02003072 CONDUIT    553.32     0  02:58      1.37    0.27    0.39
  WS02003072WS02003073 CONDUIT    553.29     0  02:59      1.44    1.20    0.37
  WS02004401WS02004402 CONDUIT    538.42     0  02:56      1.23    0.65    0.86
  WS02004402WS02004403 CONDUIT    538.23     0  02:56      1.24    0.77    0.88
  WS02004403WS02004404 CONDUIT    537.90     0  02:56      1.17    0.39    0.93
  WS02004404WS02004405 CONDUIT    538.03     0  02:56      1.43    5.27    0.96
  WS02004405WS02004406 CONDUIT    538.25     0  02:56      1.39    1.06    0.96
  WS02004406WS02004407 CONDUIT    537.57     0  02:57      1.04    0.24    0.63
  WS02004407WS02004409 CONDUIT    537.20     0  02:57      1.56    0.19    0.48
  WS02004409WS02004410 CONDUIT    536.89     0  02:57      1.03    0.69    0.67
  WS02004410WS02004411 CONDUIT    536.90     0  02:59      0.96    0.73    0.69
  WS02004411WS02004412 CONDUIT    536.67     0  02:59      0.92    0.76    0.69
  WS02004412WS02004413 CONDUIT    536.99     0  02:59      0.87    0.36    0.78
  WS02004413WS02003067 CONDUIT    536.61     0  03:00      1.11    0.23    0.59
  WS02006109WS02006110 CONDUIT    544.11     0  01:57      1.08    1.05    1.00
  WS02006110WS02006113 CONDUIT    556.61     0  01:57      1.34    0.51    0.78
  WS02006111WS02006112 CONDUIT    543.26     0  02:44      1.96    0.26    0.67
  WS02006112WS02006115 CONDUIT    545.00     0  02:55      0.84    0.32    0.87
  WS02006113WS02006111 CONDUIT    560.85     0  03:05      2.47    0.67    0.46
  WS02006115WS02006116 CONDUIT    540.39     0  02:55      1.19    0.69    0.76
  WS02006116WS02004401 CONDUIT    539.02     0  02:56      1.22    0.74    0.84
  WS02006228WS02006109 CONDUIT    542.68     0  01:57      1.08    2.37    1.00
  WS02006229WS02006228 CONDUIT    543.45     0  01:57      1.14    1.80    1.00
  WS02006230WS02006229 CONDUIT    542.65     0  01:57      1.41   12.08    1.00
  WS02006231WS02006230 CONDUIT    540.86     0  01:57      1.43    8.20    1.00
  WS02006232WS02006231 CONDUIT    537.74     0  01:57      1.40    1.13    1.00
  WS02006234WS02006232 CONDUIT    537.68     0  01:57      1.41    1.09    1.00
  WS02006235WS02006234 CONDUIT    536.61     0  01:57      1.39    5.66    1.00
  WS02006238WS02006235 CONDUIT    419.01     0  03:19      1.50    0.94    1.00
  WS02006239WS02006238 CONDUIT    418.94     0  03:19      1.10    1.34    1.00
  WS02006240WS02006239 CONDUIT    419.48     0  03:19      1.24    1.32    1.00
  WS02006242WS02006240 CONDUIT    417.68     0  03:19      1.13    1.66    1.00
  WS02006243WS02006242 CONDUIT    418.34     0  03:19      1.40    0.89    1.00
  WS02006245WS02006243 CONDUIT    417.62     0  03:19      1.45    1.24    1.00
  WS02006247WS02006245 CONDUIT    416.51     0  03:19      1.43    3.30    1.00
  WS02006248WS02006247 CONDUIT    416.81     0  03:19      1.44    0.91    1.00
  WS02006249WS02006248 CONDUIT    417.11     0  03:19      1.36    2.28    1.00
  WS02006251WS02006249 CONDUIT    459.02     0  00:00      1.99    1.32    1.00
  WS02006252WS02006251 CONDUIT    407.31     0  01:56     25.30    1.50    1.00
  WS02006256WS02006235 CONDUIT    288.91     0  00:00      4.23    3.06    1.00
  WSF200WS02003060     CONDUIT    537.04     0  03:00      2.06    0.12    0.28
  YS02001580YS02001583 CONDUIT    121.73     0  01:52      0.63    0.47    1.00
  YS02001583YS02001586 CONDUIT    152.03     0  01:52      0.64    0.23    1.00
  YS02001586YS02001590 CONDUIT    318.17     0  01:59      1.25    0.56    1.00
  YS02001590YS02001593 CONDUIT    318.15     0  01:59      1.13    2.00    1.00
  YS02001593YS02001596 CONDUIT    318.03     0  02:00      1.73    0.50    1.00
  YS02001596YS02001600 CONDUIT    318.05     0  02:00      1.25    0.62    1.00
  YS02001600YS02001601 CONDUIT    318.32     0  02:00      1.13    0.55    1.00
  YS02001601YS02001602 CONDUIT    516.05     0  01:51      1.83    1.86    1.00
  YS02001602YS02001605 CONDUIT    516.12     0  01:51      1.83   10.92    1.00
  YS02001605YS02001607 CONDUIT    516.02     0  01:51      1.83    2.83    1.00
  YS02001607YS02001610 CONDUIT    520.00     0  01:51      0.66    0.49    1.00
  YS02001610YS02001613 CONDUIT    524.01     0  01:51      0.67    0.60    1.00
  YS02001613YS02001616 CONDUIT    522.12     0  01:51      0.67    0.45    1.00
  YS02001616YS02001619 CONDUIT    500.52     0  01:51      0.67    0.87    1.00
  YS02001619YS02001622 CONDUIT    968.71     0  02:02      1.23    1.43    1.00
  YS02001622YS02001625 CONDUIT    968.28     0  02:02      1.23    0.52    1.00
  YS02001625YS02001629 CONDUIT    920.76     0  01:51      1.19    0.44    1.00
  YS02001629YS02163301 CONDUIT    918.18     0  01:54      1.17    1.13    1.00
  YS02001633YS02163601 CONDUIT   1353.31     0  01:54      1.72    1.42    1.00
  YS02001641YS02001644 CONDUIT   1350.58     0  01:54      1.72    4.37    1.00
  YS02001644YS02001647 CONDUIT   1751.15     0  01:55      2.23    1.03    1.00
  YS02001647YS02001649 CONDUIT   1762.58     0  01:55      2.31    0.93    1.00
  YS02001649YS02001757 CONDUIT   1916.44     0  01:55      2.46    1.16    1.00
  YS02001652YS02001649 CONDUIT    955.74     0  02:01      1.22    0.47    1.00
  YS02001655YS02001652 CONDUIT    955.10     0  02:01      1.34    0.46    1.00
  YS02001658YS02001655 CONDUIT    954.45     0  02:01      1.88    0.40    1.00
  YS02001661YS02001658 CONDUIT    954.26     0  02:01      2.28    0.37    1.00
  YS02001664YS02001661 CONDUIT    952.43     0  02:01      2.25    0.30    0.82
  YS02001745YS02001748 CONDUIT    605.56     0  02:01      2.14    0.23    0.93
  YS02001748YS02001751 CONDUIT    606.59     0  02:01      1.67    0.31    1.00
  YS02001751YS02001754 CONDUIT    605.73     0  02:01      1.42    0.29    1.00
  YS02001754YS02001757 CONDUIT    606.67     0  02:01      0.77    0.24    1.00
  YS02001757CaochengTiaoxuchi CONDUIT   3206.78     0  02:00      4.08    1.39    1.00
  YS02001759YS02001757 CONDUIT   1347.63     0  02:00      1.72    0.96    1.00
  YS02001762YS02001759 CONDUIT    696.12     0  01:58      0.89    0.80    1.00
  YS02001765YS02001762 CONDUIT    696.83     0  01:58      0.89    0.65    1.00
  YS02001767YS02001765 CONDUIT    696.88     0  01:58      0.89    0.88    1.00
  YS02001770YS02001767 CONDUIT    696.99     0  01:58      0.89    2.76    1.00
  YS02001774YS02001770 CONDUIT    670.61     0  02:02      0.85    0.43    1.00
  YS02001779YS02001774 CONDUIT    671.07     0  02:02      0.85    0.34    1.00
  YS02001783YS02001784 CONDUIT   1174.60     0  02:00      2.34    1.62    1.00
  YS02001784YS02001785 CONDUIT   1176.76     0  02:00      2.34    2.74    1.00
  YS02001786YS02001788 CONDUIT   1177.99     0  02:00      2.50    2.27    0.89
  YS02001788YS02001790 CONDUIT   1178.52     0  02:00      2.71    0.87    0.84
  YS02001790YS02001791 CONDUIT   1289.47     0  01:57      3.43    1.40    0.71
  YS02001791YS02001793 CONDUIT   1243.21     0  01:57      6.76    0.53    0.44
  YS02001793JiankangQianchi CONDUIT   1292.32     0  02:00      2.57    0.10    0.65
  YS02001882YS02001884 CONDUIT     40.26     0  01:53      0.14    0.05    1.00
  YS02001884YS02001887 CONDUIT     75.09     0  01:53      0.10    0.10    1.00
  YS02001887YS02001890 CONDUIT    884.41     0  02:01      1.13    1.51    1.00
  YS02001890YS02001895 CONDUIT    516.38     0  02:07      0.66    0.24    1.00
  YS02001895YS02001898 CONDUIT    516.57     0  02:07      0.66    0.90    1.00
  YS02001898YS02001901 CONDUIT    516.38     0  02:07      0.66    0.33    1.00
  YS02001901YS02001904 CONDUIT    516.38     0  02:07      0.66    0.80    1.00
  YS02001904YS02001907 CONDUIT    516.41     0  02:02      0.66    0.18    1.00
  YS02001907YS02006553 CONDUIT    796.10     0  02:20      0.88    0.94    1.00
  YS02001910YS02001907 CONDUIT   1532.17     0  02:02      1.95    0.86    1.00
  YS02001915YS02001910 CONDUIT   1531.74     0  02:02      1.95    0.76    1.00
  YS02001918YS02001915 CONDUIT    511.19     0  02:02      0.65    0.28    1.00
  YS02001920YS02001918 CONDUIT    510.74     0  02:02      0.65    0.49    1.00
  YS02001923YS02001920 CONDUIT    508.06     0  02:02      0.69    0.23    1.00
  YS02001926YS02001923 CONDUIT    506.83     0  02:02      0.96    0.72    1.00
  YS02001929YS02001926 CONDUIT    505.94     0  02:02      1.12    0.24    1.00
  YS02006553YS02006556 CONDUIT    796.18     0  02:21      1.01    0.68    1.00
  YS02006556YS02006558 CONDUIT    797.05     0  02:20      1.01    0.63    1.00
  YS02006558YS02006561 CONDUIT   1176.99     0  02:00      4.16    2.60    1.00
  YS02006561YS02001783 CONDUIT   1178.61     0  02:00      2.34    0.61    1.00
  YS02163301YS02001633 CONDUIT    918.40     0  01:54      1.17    0.86    1.00
  YS02163601YS02164001 CONDUIT   1353.00     0  01:54      1.72    1.20    1.00
  YS02164001YS02001641 CONDUIT   1351.24     0  01:54      1.72    1.85    1.00
  CC-R1                PUMP       683.00     0  00:00              1.00
  CC-R2                PUMP       683.00     0  00:00              1.00
  CC-S1                PUMP       200.00     0  00:00              1.00
  CC-S2                PUMP       200.00     0  00:00              1.00
  JK-R1                PUMP      1000.00     0  00:00              1.00
  JK-R2                PUMP      1000.00     0  00:00              1.00
  JK-S                 PUMP       300.00     0  00:00              1.00
  
  
  ***************************
  Flow Classification Summary
  ***************************
  
  -------------------------------------------------------------------------------------
                      Adjusted    ---------- Fraction of Time in Flow Class ---------- 
                       /Actual         Up    Down  Sub   Sup   Up    Down  Norm  Inlet 
  Conduit               Length    Dry  Dry   Dry   Crit  Crit  Crit  Crit  Ltd   Ctrl  
  -------------------------------------------------------------------------------------
  1                       1.00   0.00  0.00  0.00  0.00  1.00  0.00  0.00  0.59  0.00
  WS02003060WS02003069    1.00   0.00  0.00  0.00  0.97  0.03  0.00  0.00  0.74  0.00
  WS02003066WSF200        1.00   0.06  0.00  0.00  0.00  0.94  0.00  0.00  0.75  0.00
  WS02003067WS02003066    1.00   0.05  0.01  0.00  0.94  0.00  0.00  0.00  0.00  0.00
  WS02003069WS02003072    1.00   0.00  0.00  0.00  0.99  0.01  0.00  0.00  0.76  0.00
  WS02003072WS02003073    1.00   0.00  0.00  0.00  0.00  0.00  0.00  1.00  0.00  0.00
  WS02004401WS02004402    1.00   0.02  0.00  0.00  0.98  0.00  0.00  0.00  0.00  0.00
  WS02004402WS02004403    1.00   0.02  0.00  0.00  0.98  0.00  0.00  0.00  0.00  0.00
  WS02004403WS02004404    1.00   0.00  0.03  0.00  0.97  0.00  0.00  0.00  0.00  0.00
  WS02004404WS02004405    1.00   0.00  0.00  0.00  1.00  0.00  0.00  0.00  0.01  0.00
  WS02004405WS02004406    1.00   0.00  0.00  0.00  1.00  0.00  0.00  0.00  0.00  0.00
  WS02004406WS02004407    1.00   0.00  0.03  0.00  0.96  0.00  0.00  0.00  0.00  0.00
  WS02004407WS02004409    1.00   0.04  0.00  0.00  0.95  0.01  0.00  0.00  0.96  0.00
  WS02004409WS02004410    1.00   0.04  0.00  0.00  0.96  0.00  0.00  0.00  0.00  0.00
  WS02004410WS02004411    1.00   0.04  0.00  0.00  0.96  0.00  0.00  0.00  0.00  0.00
  WS02004411WS02004412    1.00   0.04  0.00  0.00  0.96  0.00  0.00  0.00  0.00  0.00
  WS02004412WS02004413    1.00   0.04  0.00  0.00  0.96  0.00  0.00  0.00  0.00  0.00
  WS02004413WS02003067    1.00   0.04  0.01  0.00  0.00  0.00  0.95  0.00  0.00  0.00
  WS02006109WS02006110    1.00   0.00  0.01  0.00  0.98  0.00  0.01  0.00  0.00  0.00
  WS02006110WS02006113    1.00   0.01  0.01  0.00  0.98  0.00  0.00  0.00  0.00  0.00
  WS02006111WS02006112    1.00   0.02  0.00  0.00  0.98  0.00  0.00  0.00  0.98  0.00
  WS02006112WS02006115    1.00   0.02  0.00  0.00  0.97  0.00  0.00  0.00  0.00  0.00
  WS02006113WS02006111    1.00   0.02  0.00  0.00  0.00  0.98  0.00  0.00  0.11  0.00
  WS02006115WS02006116    1.00   0.02  0.00  0.00  0.97  0.00  0.00  0.01  0.00  0.00
  WS02006116WS02004401    1.00   0.02  0.00  0.00  0.98  0.00  0.00  0.00  0.00  0.00
  WS02006228WS02006109    1.00   0.00  0.00  0.00  1.00  0.00  0.00  0.00  0.00  0.00
  WS02006229WS02006228    1.00   0.00  0.00  0.00  0.99  0.00  0.00  0.01  0.00  0.00
  WS02006230WS02006229    1.00   0.00  0.00  0.00  0.99  0.00  0.00  0.01  0.00  0.00
  WS02006231WS02006230    1.00   0.00  0.00  0.00  0.23  0.00  0.77  0.00  0.00  0.00
  WS02006232WS02006231    1.00   0.00  0.00  0.00  0.99  0.00  0.01  0.00  0.00  0.00
  WS02006234WS02006232    1.00   0.00  0.00  0.00  1.00  0.00  0.00  0.00  0.40  0.00
  WS02006235WS02006234    1.00   0.00  0.00  0.00  0.55  0.00  0.45  0.00  0.00  0.00
  WS02006238WS02006235    1.00   0.00  0.00  0.00  1.00  0.00  0.00  0.00  0.00  0.00
  WS02006239WS02006238    1.00   0.00  0.00  0.00  1.00  0.00  0.00  0.00  0.54  0.00
  WS02006240WS02006239    1.00   0.00  0.00  0.00  0.41  0.00  0.00  0.59  0.02  0.00
  WS02006242WS02006240    1.00   0.00  0.00  0.00  1.00  0.00  0.00  0.00  0.00  0.00
  WS02006243WS02006242    1.00   0.00  0.00  0.00  0.99  0.00  0.00  0.00  0.69  0.00
  WS02006245WS02006243    1.00   0.00  0.00  0.00  0.47  0.00  0.00  0.53  0.00  0.00
  WS02006247WS02006245    1.00   0.00  0.00  0.00  0.99  0.00  0.00  0.01  0.00  0.00
  WS02006248WS02006247    1.00   0.00  0.00  0.00  0.99  0.00  0.00  0.01  0.18  0.00
  WS02006249WS02006248    1.00   0.00  0.00  0.00  0.29  0.00  0.71  0.00  0.00  0.00
  WS02006251WS02006249    1.00   0.00  0.00  0.00  1.00  0.00  0.00  0.00  0.73  0.00
  WS02006252WS02006251    1.00   0.00  0.75  0.00  0.17  0.00  0.08  0.00  0.00  0.00
  WS02006256WS02006235    1.00   0.00  0.00  0.00  0.99  0.00  0.00  0.00  0.00  0.00
  WSF200WS02003060        1.00   0.00  0.06  0.00  0.52  0.42  0.00  0.00  0.69  0.00
  YS02001580YS02001583    1.00   0.23  0.56  0.00  0.21  0.00  0.00  0.00  0.65  0.00
  YS02001583YS02001586    1.00   0.41  0.32  0.00  0.26  0.00  0.00  0.00  0.65  0.00
  YS02001586YS02001590    1.00   0.13  0.00  0.00  0.44  0.04  0.00  0.39  0.36  0.00
  YS02001590YS02001593    1.00   0.13  0.01  0.00  0.13  0.00  0.73  0.00  0.00  0.00
  YS02001593YS02001596    1.00   0.14  0.00  0.00  0.16  0.01  0.00  0.70  0.02  0.00
  YS02001596YS02001600    1.00   0.14  0.00  0.00  0.21  0.01  0.00  0.64  0.04  0.00
  YS02001600YS02001601    1.00   0.13  0.01  0.00  0.86  0.00  0.00  0.00  0.59  0.00
  YS02001601YS02001602    1.00   0.13  0.01  0.00  0.86  0.00  0.00  0.00  0.00  0.00
  YS02001602YS02001605    1.00   0.14  0.00  0.00  0.86  0.00  0.00  0.00  0.00  0.00
  YS02001605YS02001607    1.00   0.14  0.00  0.00  0.86  0.00  0.00  0.00  0.00  0.00
  YS02001607YS02001610    1.00   0.13  0.01  0.00  0.86  0.00  0.00  0.00  0.01  0.00
  YS02001610YS02001613    1.00   0.13  0.00  0.00  0.87  0.00  0.00  0.00  0.00  0.00
  YS02001613YS02001616    1.00   0.13  0.00  0.00  0.87  0.00  0.00  0.00  0.00  0.00
  YS02001616YS02001619    1.00   0.13  0.00  0.00  0.87  0.00  0.00  0.00  0.00  0.00
  YS02001619YS02001622    1.00   0.13  0.00  0.00  0.87  0.00  0.00  0.00  0.28  0.00
  YS02001622YS02001625    1.00   0.13  0.00  0.00  0.87  0.00  0.00  0.00  0.04  0.00
  YS02001625YS02001629    1.00   0.13  0.05  0.00  0.18  0.00  0.64  0.00  0.00  0.00
  YS02001629YS02163301    1.00   0.15  0.01  0.00  0.84  0.00  0.00  0.00  0.00  0.00
  YS02001633YS02163601    1.00   0.00  0.01  0.00  0.99  0.00  0.00  0.00  0.15  0.00
  YS02001641YS02001644    1.00   0.00  0.01  0.00  0.99  0.00  0.00  0.00  0.00  0.00
  YS02001644YS02001647    1.00   0.00  0.17  0.00  0.83  0.00  0.00  0.00  0.00  0.00
  YS02001647YS02001649    1.00   0.00  0.17  0.00  0.55  0.28  0.00  0.00  0.56  0.00
  YS02001649YS02001757    1.00   0.00  0.00  0.00  0.70  0.30  0.00  0.00  0.44  0.00
  YS02001652YS02001649    1.00   0.00  0.00  0.00  0.97  0.03  0.00  0.00  0.73  0.00
  YS02001655YS02001652    1.00   0.00  0.00  0.00  0.20  0.01  0.00  0.79  0.04  0.00
  YS02001658YS02001655    1.00   0.00  0.14  0.00  0.68  0.18  0.00  0.00  0.66  0.00
  YS02001661YS02001658    1.00   0.14  0.00  0.00  0.52  0.34  0.00  0.00  0.67  0.00
  YS02001664YS02001661    1.00   0.13  0.00  0.00  0.78  0.10  0.00  0.00  0.84  0.00
  YS02001745YS02001748    1.00   0.00  0.00  0.00  0.12  0.01  0.00  0.87  0.05  0.00
  YS02001748YS02001751    1.00   0.00  0.00  0.00  0.84  0.16  0.00  0.00  0.75  0.00
  YS02001751YS02001754    1.00   0.00  0.00  0.00  0.18  0.01  0.00  0.81  0.02  0.00
  YS02001754YS02001757    1.00   0.00  0.00  0.00  1.00  0.00  0.00  0.00  0.80  0.00
  YS02001757CaochengTiaoxuchi    1.00   0.00  0.00  0.00  1.00  0.00  0.00  0.00  0.78  0.00
  YS02001759YS02001757    1.00   0.00  0.00  0.00  1.00  0.00  0.00  0.00  0.60  0.00
  YS02001762YS02001759    1.00   0.00  0.00  0.00  1.00  0.00  0.00  0.00  0.04  0.00
  YS02001765YS02001762    1.00   0.00  0.00  0.00  1.00  0.00  0.00  0.00  0.72  0.00
  YS02001767YS02001765    1.00   0.00  0.00  0.00  1.00  0.00  0.00  0.00  0.00  0.00
  YS02001770YS02001767    1.00   0.00  0.00  0.00  1.00  0.00  0.00  0.00  0.00  0.00
  YS02001774YS02001770    1.00   0.00  0.13  0.00  0.71  0.00  0.16  0.00  0.03  0.00
  YS02001779YS02001774    1.00   0.00  0.00  0.00  1.00  0.00  0.00  0.00  0.76  0.00
  YS02001783YS02001784    1.00   0.00  0.18  0.00  0.82  0.00  0.00  0.00  0.55  0.00
  YS02001784YS02001785    1.00   0.00  0.00  0.00  1.00  0.00  0.00  0.00  0.16  0.00
  YS02001786YS02001788    1.00   0.00  0.00  0.00  0.79  0.21  0.00  0.00  0.00  0.00
  YS02001788YS02001790    1.00   0.00  0.00  0.00  0.21  0.79  0.00  0.00  0.79  0.00
  YS02001790YS02001791    1.00   0.00  0.00  0.00  0.01  0.99  0.00  0.00  0.16  0.00
  YS02001791YS02001793    1.00   0.00  0.00  0.00  0.00  1.00  0.00  0.00  0.01  0.00
  YS02001793JiankangQianchi    1.00   0.00  0.00  0.00  0.96  0.04  0.00  0.00  0.97  0.00
  YS02001882YS02001884    1.00   0.15  0.01  0.00  0.84  0.00  0.00  0.00  0.00  0.00
  YS02001884YS02001887    1.00   0.06  0.05  0.00  0.89  0.00  0.00  0.00  0.00  0.00
  YS02001887YS02001890    1.00   0.00  0.00  0.00  0.97  0.00  0.03  0.00  0.00  0.00
  YS02001890YS02001895    1.00   0.00  0.16  0.00  0.84  0.00  0.00  0.00  0.00  0.00
  YS02001895YS02001898    1.00   0.16  0.00  0.00  0.82  0.00  0.02  0.00  0.00  0.00
  YS02001898YS02001901    1.00   0.16  0.00  0.00  0.83  0.00  0.00  0.00  0.01  0.00
  YS02001901YS02001904    1.00   0.16  0.00  0.00  0.84  0.00  0.00  0.00  0.00  0.00
  YS02001904YS02001907    1.00   0.00  0.16  0.00  0.84  0.00  0.00  0.00  0.00  0.00
  YS02001907YS02006553    1.00   0.00  0.02  0.00  0.98  0.00  0.00  0.00  0.00  0.00
  YS02001910YS02001907    1.00   0.00  0.00  0.00  0.97  0.00  0.00  0.03  0.12  0.00
  YS02001915YS02001910    1.00   0.00  0.00  0.00  0.97  0.03  0.00  0.00  0.15  0.00
  YS02001918YS02001915    1.00   0.00  0.01  0.00  0.98  0.02  0.00  0.00  0.73  0.00
  YS02001920YS02001918    1.00   0.00  0.01  0.00  0.99  0.00  0.00  0.00  0.00  0.00
  YS02001923YS02001920    1.00   0.00  0.00  0.00  1.00  0.00  0.00  0.00  0.91  0.00
  YS02001926YS02001923    1.00   0.00  0.07  0.00  0.07  0.00  0.86  0.00  0.00  0.00
  YS02001929YS02001926    1.00   0.00  0.13  0.00  0.87  0.00  0.00  0.00  0.81  0.00
  YS02006553YS02006556    1.00   0.01  0.00  0.00  0.99  0.00  0.00  0.00  0.03  0.00
  YS02006556YS02006558    1.00   0.00  0.00  0.00  1.00  0.00  0.00  0.00  0.00  0.00
  YS02006558YS02006561    1.00   0.18  0.00  0.00  0.07  0.76  0.00  0.00  0.19  0.00
  YS02006561YS02001783    1.00   0.18  0.00  0.00  0.10  0.72  0.00  0.00  0.67  0.00
  YS02163301YS02001633    1.00   0.00  0.15  0.00  0.85  0.00  0.00  0.00  0.00  0.00
  YS02163601YS02164001    1.00   0.00  0.08  0.00  0.92  0.00  0.00  0.00  0.00  0.00
  YS02164001YS02001641    1.00   0.01  0.07  0.00  0.92  0.00  0.00  0.00  0.05  0.00
  
  
  *************************
  Conduit Surcharge Summary
  *************************
  
  ----------------------------------------------------------------------------
                                                           Hours        Hours 
                         --------- Hours Full --------   Above Full   Capacity
  Conduit                Both Ends  Upstream  Dnstream   Normal Flow   Limited
  ----------------------------------------------------------------------------
  WS02003072WS02003073        0.01      0.01      0.01      1.37         0.01
  WS02004404WS02004405        0.01      0.01      0.01      2.30         0.01
  WS02004405WS02004406        0.01      0.01      0.01      1.29         0.01
  WS02006109WS02006110        1.36      1.36      1.76      1.37         0.01
  WS02006110WS02006113        0.01      0.01      1.75      0.01         0.01
  WS02006111WS02006112        0.01      0.01      1.82      0.01         0.01
  WS02006112WS02006115        0.01      0.01      1.31      0.01         0.01
  WS02006228WS02006109        1.74      1.76      1.74      1.96         1.74
  WS02006229WS02006228        1.73      1.74      1.73      1.88         1.73
  WS02006230WS02006229        1.79      1.81      1.79      2.79         1.79
  WS02006231WS02006230        1.36      1.36      1.38      2.56         0.01
  WS02006232WS02006231        1.37      1.37      1.76      1.39         0.01
  WS02006234WS02006232        1.72      1.72      1.76      1.38         1.38
  WS02006235WS02006234        1.43      1.43      1.73      2.43         0.01
  WS02006238WS02006235        1.74      1.74      1.76      0.01         0.01
  WS02006239WS02006238        1.74      1.74      1.74      1.81         1.64
  WS02006240WS02006239        1.73      1.74      1.73      1.81         1.52
  WS02006242WS02006240        1.73      1.73      1.76      1.86         0.01
  WS02006243WS02006242        1.73      1.73      1.74      0.01         0.01
  WS02006245WS02006243        1.72      1.72      1.73      0.44         0.55
  WS02006247WS02006245        1.72      1.72      1.72      1.98         1.72
  WS02006248WS02006247        1.72      1.72      1.72      0.01         0.01
  WS02006249WS02006248        1.71      1.72      1.71      1.96         0.01
  WS02006251WS02006249        1.71      1.71      1.71      1.87         1.70
  WS02006252WS02006251        1.89      1.89      1.89      1.89         0.01
  WS02006256WS02006235        2.49      2.50      3.62      1.78         0.01
  YS02001580YS02001583        0.70      0.70      0.76      0.01         0.01
  YS02001583YS02001586        0.71      0.71      0.86      0.01         0.01
  YS02001586YS02001590        0.86      0.86      0.94      0.01         0.01
  YS02001590YS02001593        0.94      0.94      0.96      0.98         0.01
  YS02001593YS02001596        0.95      0.95      1.06      0.01         0.01
  YS02001596YS02001600        1.11      1.11      1.23      0.01         0.01
  YS02001600YS02001601        1.30      1.30      1.53      0.01         0.01
  YS02001601YS02001602        1.44      1.44      1.57      1.21         0.01
  YS02001602YS02001605        1.40      1.40      1.44      2.33         0.01
  YS02001605YS02001607        1.36      1.40      1.36      1.50         1.36
  YS02001607YS02001610        0.94      0.94      0.97      0.01         0.01
  YS02001610YS02001613        0.93      0.93      0.97      0.01         0.01
  YS02001613YS02001616        0.89      0.89      0.93      0.01         0.01
  YS02001616YS02001619        0.87      0.87      0.89      0.01         0.02
  YS02001619YS02001622        0.87      0.87      0.87      0.91         0.83
  YS02001622YS02001625        0.87      0.87      1.07      0.01         0.01
  YS02001625YS02001629        0.82      0.82      1.07      0.01         0.01
  YS02001629YS02163301        1.07      1.07      1.08      0.06         0.11
  YS02001633YS02163601        1.10      1.10      1.14      0.28         0.28
  YS02001641YS02001644        1.03      1.06      1.03      1.60         1.01
  YS02001644YS02001647        0.80      0.80      1.03      0.02         0.01
  YS02001647YS02001649        0.80      0.80      0.95      0.01         0.01
  YS02001649YS02001757        0.95      0.95      1.03      0.07         0.03
  YS02001652YS02001649        0.77      0.77      0.95      0.01         0.01
  YS02001655YS02001652        0.55      0.55      0.74      0.01         0.01
  YS02001658YS02001655        0.29      0.29      0.55      0.01         0.01
  YS02001661YS02001658        0.07      0.07      0.29      0.01         0.01
  YS02001664YS02001661        0.01      0.01      0.13      0.01         0.01
  YS02001745YS02001748        0.01      0.01      0.23      0.01         0.01
  YS02001748YS02001751        0.27      0.27      0.41      0.01         0.01
  YS02001751YS02001754        0.41      0.41      0.65      0.01         0.01
  YS02001754YS02001757        0.70      0.70      1.03      0.01         0.01
  YS02001757CaochengTiaoxuchi        1.03      1.03      1.50      0.39         0.37
  YS02001759YS02001757        0.93      0.93      1.03      0.01         0.01
  YS02001762YS02001759        0.90      0.90      0.93      0.01         0.01
  YS02001765YS02001762        0.84      0.84      0.90      0.01         0.01
  YS02001767YS02001765        0.81      0.81      0.84      0.01         0.02
  YS02001770YS02001767        0.80      0.80      0.81      0.60         0.52
  YS02001774YS02001770        0.78      0.78      0.87      0.01         0.01
  YS02001779YS02001774        0.64      0.64      0.87      0.01         0.01
  YS02001783YS02001784        0.58      0.61      0.58      0.77         0.58
  YS02001784YS02001785        0.47      0.58      0.47      1.02         0.47
  YS02001786YS02001788        0.01      0.47      0.01      0.87         0.01
  YS02001790YS02001791        0.01      0.01      0.01      0.57         0.01
  YS02001793JiankangQianchi        0.01      0.01      7.59      0.01         0.01
  YS02001882YS02001884        0.55      0.55      0.56      0.01         0.01
  YS02001884YS02001887        0.58      0.58      0.60      0.01         0.01
  YS02001887YS02001890        0.61      0.61      0.62      0.14         0.01
  YS02001890YS02001895        0.54      0.54      0.64      0.01         0.01
  YS02001895YS02001898        0.53      0.53      0.54      0.01         0.01
  YS02001898YS02001901        0.54      0.54      0.58      0.01         0.01
  YS02001901YS02001904        0.57      0.57      0.58      0.01         0.01
  YS02001904YS02001907        0.57      0.57      0.86      0.01         0.01
  YS02001907YS02006553        1.04      1.04      1.12      0.01         0.01
  YS02001910YS02001907        0.64      0.64      0.84      0.01         0.01
  YS02001915YS02001910        0.55      0.55      0.64      0.01         0.01
  YS02001918YS02001915        0.46      0.46      0.55      0.01         0.01
  YS02001920YS02001918        0.46      0.46      0.47      0.01         0.01
  YS02001923YS02001920        0.41      0.41      0.47      0.01         0.01
  YS02001926YS02001923        0.14      0.14      0.17      0.01         0.01
  YS02001929YS02001926        0.01      0.01      0.17      0.01         0.01
  YS02006553YS02006556        0.74      0.74      0.86      0.01         0.01
  YS02006556YS02006558        0.79      0.79      0.88      0.01         0.01
  YS02006558YS02006561        0.49      0.73      0.49      0.97         0.49
  YS02006561YS02001783        0.42      0.42      0.61      0.01         0.01
  YS02163301YS02001633        1.08      1.08      1.12      0.01         0.01
  YS02163601YS02164001        1.06      1.06      1.14      0.07         0.01
  YS02164001YS02001641        1.05      1.06      1.06      0.72         0.67
  
  
  ***************
  Pumping Summary
  ***************
  
  ---------------------------------------------------------------------------------------------------------
                                                  Min       Avg       Max     Total     Power    % Time Off
                        Percent   Number of      Flow      Flow      Flow    Volume     Usage    Pump Curve
  Pump                 Utilized   Start-Ups       LPS       LPS       LPS  10^6 ltr     Kw-hr    Low   High
  ---------------------------------------------------------------------------------------------------------
  CC-R1                   22.99           2      0.00    683.00    683.00     4.475     83.82    0.0   21.4
  CC-R2                   22.05           2      0.00    683.00    683.00     4.292     80.43    0.0   22.4
  CC-S1                   25.18           2      0.00    200.00    200.00     1.435      7.92    0.0    0.0
  CC-S2                   23.90           2      0.00    200.00    200.00     1.363      7.49    0.0    0.0
  JK-R1                    8.48           5      0.00   1000.00   1000.00     2.416     23.48    0.0    0.0
  JK-R2                    0.17           1      0.00   1000.00   1000.00     0.047      0.36    0.0    0.0
  JK-S                    22.52           3      0.00    300.00    300.00     1.925     30.82    0.0    0.0
  

  Analysis begun on:  Thu Jan 16 14:24:04 2025
  Analysis ended on:  Thu Jan 16 14:24:06 2025
  Total elapsed time: 00:00:02