
  EPA STORM WATER MANAGEMENT MODEL - VERSION 5.2 (Build 5.2.4)
  PYSWMM TOOLKIT API - VERSION v1.0 (2023-11-27)
  ------------------------------------------------------------

  WARNING 04: minimum elevation drop used for Conduit WS02004404WS02004405
  WARNING 03: negative offset ignored for Link YS02001904YS02001907
  
  ****************
  Analysis Options
  ****************
  Flow Units ............... LPS
  Process Models:
    Rainfall/Runoff ........ YES
    RDII ................... NO
    Snowmelt ............... NO
    Groundwater ............ NO
    Flow Routing ........... YES
    Ponding Allowed ........ NO
    Water Quality .......... NO
  Infiltration Method ...... HORTON
  Flow Routing Method ...... DYNWAVE
  Surcharge Method ......... EXTRAN
  Starting Date ............ 08/28/2015 08:00:00
  Ending Date .............. 08/28/2015 16:00:00
  Antecedent Dry Days ...... 8.0
  Report Time Step ......... 00:01:00
  Wet Time Step ............ 00:01:00
  Dry Time Step ............ 00:01:00
  Routing Time Step ........ 30.00 sec
  Variable Time Step ....... YES
  Maximum Trials ........... 8
  Number of Threads ........ 4
  Head Tolerance ........... 0.001500 m
  
  
  **************************        Volume         Depth
  Runoff Quantity Continuity     hectare-m            mm
  **************************     ---------       -------
  Total Precipitation ......         1.845        55.609
  Evaporation Loss .........         0.000         0.000
  Infiltration Loss ........         0.097         2.914
  Surface Runoff ...........         1.715        51.713
  Final Storage ............         0.033         0.995
  Continuity Error (%) .....        -0.024
  
  
  **************************        Volume        Volume
  Flow Routing Continuity        hectare-m      10^6 ltr
  **************************     ---------     ---------
  Dry Weather Inflow .......         0.025         0.248
  Wet Weather Inflow .......         1.715        17.154
  Groundwater Inflow .......         0.000         0.000
  RDII Inflow ..............         0.000         0.000
  External Inflow ..........         0.083         0.825
  External Outflow .........         1.345        13.453
  Flooding Loss ............         0.499         4.986
  Evaporation Loss .........         0.000         0.000
  Exfiltration Loss ........         0.000         0.000
  Initial Stored Volume ....         0.243         2.431
  Final Stored Volume ......         0.227         2.273
  Continuity Error (%) .....        -0.257
  
  
  *************************
  Highest Continuity Errors
  *************************
  Node YS02001583 (-5.88%)
  Node YS02001884 (4.95%)
  
  
  ***************************
  Time-Step Critical Elements
  ***************************
  Link WS02004404WS02004405 (32.55%)
  Link WS02006238WS02006235 (14.41%)
  Link YS02001791YS02001793 (11.93%)
  Link WS02003066WSF200 (10.69%)
  Link YS02006556YS02006558 (9.01%)
  
  
  ********************************
  Highest Flow Instability Indexes
  ********************************
  Link WS02006113WS02006111 (26)
  Link WS02006252WS02006251 (24)
  Link WS02006238WS02006235 (20)
  Link WS02006111WS02006112 (19)
  Link WS02006110WS02006113 (15)
  
  
  *********************************
  Most Frequent Nonconverging Nodes
  *********************************
  Node CC-1 (10.29%)
  Node CC-2 (10.29%)
  Node JK-1 (10.29%)
  Node JK-2 (10.29%)
  Node WSC (10.29%)
  
  
  *************************
  Routing Time Step Summary
  *************************
  Minimum Time Step           :     0.01 sec
  Average Time Step           :     3.45 sec
  Maximum Time Step           :     6.43 sec
  % of Time in Steady State   :     0.00
  Average Iterations per Step :     3.19
  % of Steps Not Converging   :    10.29
  Time Step Frequencies       :
     30.000 - 13.228 sec      :     0.00 %
     13.228 -  5.833 sec      :    21.20 %
      5.833 -  2.572 sec      :    34.58 %
      2.572 -  1.134 sec      :    32.24 %
      1.134 -  0.500 sec      :    11.98 %
  
  
  ***************************
  Subcatchment Runoff Summary
  ***************************
  
  ------------------------------------------------------------------------------------------------------------------------------
                            Total      Total      Total      Total     Imperv       Perv      Total       Total     Peak  Runoff
                           Precip      Runon       Evap      Infil     Runoff     Runoff     Runoff      Runoff   Runoff   Coeff
  Subcatchment                 mm         mm         mm         mm         mm         mm         mm    10^6 ltr      LPS
  ------------------------------------------------------------------------------------------------------------------------------
  sub60                     55.61       0.00       0.00       1.76      47.73       4.92      52.65        0.69   500.17   0.947
  sub61                     55.61       0.00       0.00       2.55      45.02       6.91      51.94        0.95   692.37   0.934
  sub62                     55.61       0.00       0.00       1.17      49.87       3.28      53.15        1.46   969.17   0.956
  sub63                     55.61       0.00       0.00       4.69      38.51      11.44      49.95        1.13   767.14   0.898
  sub64                     55.61       0.00       0.00       2.37      46.06       5.97      52.03        1.25   779.01   0.936
  sub65                     55.61       0.00       0.00       2.05      47.13       5.18      52.30        1.44   870.22   0.941
  sub66                     55.61       0.00       0.00       5.81      38.41      10.32      48.73        2.27  1112.57   0.876
  sub67                     55.61       0.00       0.00       1.13      49.92       3.32      53.24        0.99   755.55   0.957
  sub68                     55.61       0.00       0.00       2.11      46.64       5.68      52.32        1.44   995.99   0.941
  sub69                     55.61       0.00       0.00       1.86      47.15       6.48      53.64        1.99  1160.19   0.965
  sub70                     55.61       0.00       0.00       6.22      36.54      12.69      49.22        1.42   624.32   0.885
  sub71                     55.61       0.00       0.00       1.20      49.83       3.25      53.08        1.39   845.10   0.955
  sub72                     55.61       0.00       0.00       1.07      50.31       2.83      53.14        0.73   405.06   0.956
  
  
  ******************
  Node Depth Summary
  ******************
  
  ---------------------------------------------------------------------------------
                                 Average  Maximum  Maximum  Time of Max    Reported
                                   Depth    Depth      HGL   Occurrence   Max Depth
  Node                 Type       Meters   Meters   Meters  days hr:min      Meters
  ---------------------------------------------------------------------------------
  WS02003060           JUNCTION     0.19     0.38     5.32     0  02:41        0.38
  WS02003066           JUNCTION     0.16     0.30     5.85     0  02:40        0.30
  WS02003067           JUNCTION     0.44     0.70     6.02     0  02:40        0.70
  WS02003069           JUNCTION     0.21     0.43     5.01     0  02:41        0.43
  WS02003072           JUNCTION     0.27     0.50     4.87     0  02:42        0.50
  WS02003073           JUNCTION     0.15     0.30     4.36     0  02:43        0.30
  WS02004401           JUNCTION     0.52     0.85     6.85     0  02:37        0.85
  WS02004402           JUNCTION     0.55     0.88     6.84     0  02:38        0.88
  WS02004403           JUNCTION     0.58     0.89     6.82     0  02:38        0.89
  WS02004404           JUNCTION     0.65     0.96     6.81     0  02:38        0.96
  WS02004405           JUNCTION     0.65     0.96     6.81     0  02:38        0.96
  WS02004406           JUNCTION     0.66     0.96     6.79     0  02:38        0.96
  WS02004407           JUNCTION     0.14     0.30     6.61     0  02:38        0.30
  WS02004409           JUNCTION     0.32     0.67     6.44     0  02:39        0.67
  WS02004410           JUNCTION     0.34     0.68     6.40     0  02:39        0.68
  WS02004411           JUNCTION     0.37     0.69     6.37     0  02:39        0.69
  WS02004412           JUNCTION     0.39     0.70     6.34     0  02:39        0.70
  WS02004413           JUNCTION     0.55     0.86     6.33     0  02:40        0.86
  WS02006109           JUNCTION     0.59     1.05     7.67     0  03:12        0.98
  WS02006110           JUNCTION     0.59     1.03     7.61     0  03:12        0.93
  WS02006111           JUNCTION     0.15     0.29     7.00     0  03:14        0.29
  WS02006112           JUNCTION     0.67     1.07     6.95     0  02:24        1.05
  WS02006113           JUNCTION     0.22     0.46     7.35     0  03:14        0.46
  WS02006115           JUNCTION     0.41     0.75     6.89     0  02:37        0.75
  WS02006116           JUNCTION     0.49     0.83     6.87     0  02:37        0.83
  WS02006228           JUNCTION     0.58     1.08     7.73     0  03:12        1.03
  WS02006229           JUNCTION     0.55     1.09     7.78     0  03:12        1.05
  WS02006230           JUNCTION     0.55     1.22     7.97     0  03:12        1.17
  WS02006231           JUNCTION     0.36     0.95     8.07     0  03:12        0.91
  WS02006232           JUNCTION     0.49     1.13     8.17     0  03:12        1.09
  WS02006234           JUNCTION     0.42     1.23     8.38     0  02:01        1.14
  WS02006235           JUNCTION     0.47     1.25     8.42     0  03:14        1.25
  WS02006238           JUNCTION     0.49     1.29     8.44     0  03:14        1.29
  WS02006239           JUNCTION     0.45     1.28     8.49     0  03:14        1.28
  WS02006240           JUNCTION     0.43     1.24     8.53     0  03:14        1.24
  WS02006242           JUNCTION     0.48     1.30     8.57     0  03:14        1.30
  WS02006243           JUNCTION     0.40     1.18     8.60     0  03:14        1.18
  WS02006245           JUNCTION     0.40     1.15     8.64     0  03:14        1.15
  WS02006247           JUNCTION     0.41     1.16     8.66     0  03:14        1.16
  WS02006248           JUNCTION     0.38     1.09     8.68     0  03:15        1.09
  WS02006249           JUNCTION     0.40     1.09     8.69     0  02:02        1.09
  WS02006251           JUNCTION     0.40     1.37     9.04     0  02:02        1.12
  WS02006252           JUNCTION     0.28     1.50     9.74     0  00:00        0.68
  WS02006256           JUNCTION     1.14     2.35     9.28     0  00:00        2.35
  WSF200               JUNCTION     0.13     0.29     5.52     0  02:40        0.29
  YS02001580           JUNCTION     0.13     1.05     9.59     0  01:56        0.78
  YS02001583           JUNCTION     0.16     1.14     9.64     0  01:56        0.82
  YS02001586           JUNCTION     0.26     1.13     9.30     0  01:56        1.13
  YS02001590           JUNCTION     0.37     1.40     9.26     0  01:54        1.38
  YS02001593           JUNCTION     0.31     1.46     9.32     0  01:54        1.30
  YS02001596           JUNCTION     0.42     1.68     9.10     0  01:56        1.67
  YS02001600           JUNCTION     0.51     1.87     9.00     0  01:54        1.86
  YS02001601           JUNCTION     0.70     2.06     8.90     0  01:54        2.06
  YS02001602           JUNCTION     0.60     1.87     8.77     0  01:55        1.87
  YS02001605           JUNCTION     0.55     1.78     8.68     0  01:55        1.78
  YS02001607           JUNCTION     0.52     1.68     8.53     0  02:24        1.68
  YS02001610           JUNCTION     0.57     1.68     8.48     0  01:55        1.68
  YS02001613           JUNCTION     0.53     1.70     8.54     0  01:56        1.70
  YS02001616           JUNCTION     0.46     1.61     8.52     0  01:55        1.60
  YS02001619           JUNCTION     0.44     1.61     8.54     0  01:55        1.61
  YS02001622           JUNCTION     0.43     1.62     8.52     0  01:55        1.58
  YS02001625           JUNCTION     0.67     1.78     8.38     0  01:56        1.78
  YS02001629           JUNCTION     0.56     1.85     8.40     0  01:56        1.85
  YS02001633           JUNCTION     0.63     2.08     8.53     0  01:57        2.03
  YS02001641           JUNCTION     0.60     1.96     8.39     0  01:59        1.94
  YS02001644           JUNCTION     0.59     1.92     8.35     0  01:57        1.92
  YS02001647           JUNCTION     0.38     1.90     8.51     0  01:57        1.74
  YS02001649           JUNCTION     0.43     2.05     8.44     0  02:00        1.94
  YS02001652           JUNCTION     0.32     2.05     8.65     0  02:00        2.05
  YS02001655           JUNCTION     0.24     2.01     8.86     0  01:59        1.90
  YS02001658           JUNCTION     0.17     2.03     9.17     0  01:59        1.42
  YS02001661           JUNCTION     0.17     1.61     9.02     0  02:00        1.16
  YS02001664           JUNCTION     0.07     0.88     8.81     0  02:00        0.68
  YS02001745           JUNCTION     0.08     1.84     9.35     0  02:00        0.94
  YS02001748           JUNCTION     0.16     2.15     9.23     0  02:00        1.17
  YS02001751           JUNCTION     0.20     2.19     9.07     0  02:00        1.41
  YS02001754           JUNCTION     0.28     2.19     8.80     0  02:00        1.71
  YS02001757           JUNCTION     0.45     2.21     8.47     0  02:00        2.03
  YS02001759           JUNCTION     0.39     2.18     8.55     0  02:00        2.17
  YS02001762           JUNCTION     0.38     2.15     8.55     0  02:00        2.15
  YS02001765           JUNCTION     0.36     2.10     8.55     0  01:58        2.10
  YS02001767           JUNCTION     0.36     2.03     8.52     0  01:58        2.03
  YS02001770           JUNCTION     0.37     1.95     8.44     0  01:58        1.95
  YS02001774           JUNCTION     0.43     2.05     8.47     0  01:59        2.05
  YS02001779           JUNCTION     0.26     1.68     8.37     0  01:58        1.68
  YS02001783           JUNCTION     0.30     1.57     7.71     0  01:58        1.23
  YS02001784           JUNCTION     0.31     1.31     7.38     0  01:58        1.11
  YS02001786           JUNCTION     0.26     1.05     7.08     0  01:58        0.87
  YS02001788           JUNCTION     0.19     0.63     6.60     0  01:58        0.62
  YS02001790           JUNCTION     0.22     0.72     6.37     0  02:04        0.72
  YS02001791           JUNCTION     0.14     0.44     5.91     0  01:59        0.43
  YS02001793           JUNCTION     0.07     0.31     5.15     0  02:00        0.27
  YS02001882           JUNCTION     0.37     1.83     8.55     0  01:57        1.74
  YS02001884           JUNCTION     0.46     1.90     8.51     0  01:57        1.83
  YS02001887           JUNCTION     0.54     1.95     8.49     0  01:59        1.95
  YS02001890           JUNCTION     0.56     1.81     8.32     0  01:57        1.81
  YS02001895           JUNCTION     0.34     1.75     8.50     0  01:57        1.58
  YS02001898           JUNCTION     0.35     1.77     8.51     0  01:57        1.56
  YS02001901           JUNCTION     0.46     1.82     8.43     0  01:57        1.68
  YS02001904           JUNCTION     0.44     1.69     8.32     0  01:57        1.63
  YS02001907           JUNCTION     0.75     1.96     8.25     0  01:57        1.96
  YS02001910           JUNCTION     0.55     2.10     8.61     0  01:57        1.90
  YS02001915           JUNCTION     0.38     2.00     8.72     0  01:57        1.82
  YS02001918           JUNCTION     0.21     1.81     8.88     0  01:58        1.44
  YS02001920           JUNCTION     0.29     2.10     9.11     0  01:59        1.52
  YS02001923           JUNCTION     0.16     2.03     9.29     0  01:59        1.28
  YS02001926           JUNCTION     0.19     1.90     9.35     0  01:59        1.11
  YS02001929           JUNCTION     0.11     1.78     9.47     0  01:59        1.02
  YS02006553           JUNCTION     0.75     2.07     8.35     0  01:58        2.03
  YS02006556           JUNCTION     0.72     2.16     8.47     0  01:58        2.03
  YS02006558           JUNCTION     0.76     2.23     8.50     0  01:58        2.11
  YS02006561           JUNCTION     0.19     1.42     8.08     0  01:58        0.89
  YS02163301           JUNCTION     0.58     1.96     8.48     0  01:57        1.93
  YS02163601           JUNCTION     0.66     2.08     8.48     0  01:57        2.04
  YS02164001           JUNCTION     0.59     1.99     8.45     0  01:57        1.94
  CC-1                 OUTFALL      0.00     0.00     0.00     0  00:00        0.00
  CC-2                 OUTFALL      0.00     0.00     0.00     0  00:00        0.00
  JK-1                 OUTFALL      0.00     0.00     0.00     0  00:00        0.00
  JK-2                 OUTFALL      0.00     0.00     0.00     0  00:00        0.00
  WSC                  OUTFALL      0.15     0.30     0.97     0  02:43        0.30
  CC-storage           STORAGE      0.86     1.64     7.14     0  02:27        1.64
  JK-storage           STORAGE      2.25     4.23     5.03     0  02:00        4.19
  
  
  *******************
  Node Inflow Summary
  *******************
  
  -------------------------------------------------------------------------------------------------
                                  Maximum  Maximum                  Lateral       Total        Flow
                                  Lateral    Total  Time of Max      Inflow      Inflow     Balance
                                   Inflow   Inflow   Occurrence      Volume      Volume       Error
  Node                 Type           LPS      LPS  days hr:min    10^6 ltr    10^6 ltr     Percent
  -------------------------------------------------------------------------------------------------
  WS02003060           JUNCTION     16.53   553.62     0  02:40       0.471        3.87       0.051
  WS02003066           JUNCTION      0.00   536.91     0  02:40           0         3.4       0.038
  WS02003067           JUNCTION      0.00   536.86     0  02:40           0        3.41       0.118
  WS02003069           JUNCTION      0.32   553.80     0  02:41     0.00912        3.88       0.091
  WS02003072           JUNCTION      0.00   553.54     0  02:42           0        3.88       0.168
  WS02003073           JUNCTION      1.82   555.25     0  02:42      0.0519        3.92       0.130
  WS02004401           JUNCTION      0.00   539.59     0  02:37           0        3.51       0.285
  WS02004402           JUNCTION      0.00   539.04     0  02:37           0         3.5       0.289
  WS02004403           JUNCTION      0.00   538.62     0  02:38           0        3.49       0.284
  WS02004404           JUNCTION      0.16   538.49     0  02:38     0.00462        3.48       0.251
  WS02004405           JUNCTION      0.04   538.48     0  02:38     0.00109        3.47       0.337
  WS02004406           JUNCTION      0.00   538.51     0  02:38           0        3.46       0.596
  WS02004407           JUNCTION      0.00   538.04     0  02:38           0        3.44       0.026
  WS02004409           JUNCTION      0.00   537.68     0  02:38           0        3.44       0.064
  WS02004410           JUNCTION      0.00   537.47     0  02:39           0        3.44       0.116
  WS02004411           JUNCTION      0.00   537.24     0  02:39           0        3.43       0.151
  WS02004412           JUNCTION      0.00   537.16     0  02:39           0        3.43       0.205
  WS02004413           JUNCTION      0.00   537.07     0  02:40           0        3.42       0.377
  WS02006109           JUNCTION      1.23   549.60     0  03:13      0.0351        3.55       0.265
  WS02006110           JUNCTION      0.00   549.74     0  03:13           0        3.54       0.177
  WS02006111           JUNCTION      0.00   566.07     0  03:14           0        3.54       0.022
  WS02006112           JUNCTION      0.00   546.09     0  03:14           0        3.54       0.562
  WS02006113           JUNCTION      0.00   558.39     0  03:12           0        3.54       0.044
  WS02006115           JUNCTION      0.00   546.95     0  02:24           0        3.52       0.179
  WS02006116           JUNCTION      0.00   540.81     0  02:37           0        3.51       0.116
  WS02006228           JUNCTION      0.00   548.50     0  03:13           0        3.52       0.111
  WS02006229           JUNCTION      0.00   548.22     0  03:13           0        3.53       0.153
  WS02006230           JUNCTION     10.28   580.78     0  03:12       0.293        3.53       0.160
  WS02006231           JUNCTION      0.00   570.53     0  03:12           0        3.24      -0.107
  WS02006232           JUNCTION      0.00   569.44     0  03:12           0        3.25       0.302
  WS02006234           JUNCTION      0.00   565.29     0  03:12           0        3.24      -0.224
  WS02006235           JUNCTION      0.00   558.43     0  03:12           0        3.33       0.250
  WS02006238           JUNCTION      0.00   419.43     0  02:56           0        2.24      -0.140
  WS02006239           JUNCTION      0.00   419.81     0  02:56           0         2.2      -0.082
  WS02006240           JUNCTION      0.00   418.07     0  02:56           0        2.16      -0.077
  WS02006242           JUNCTION      0.00   418.75     0  02:56           0        2.13      -0.048
  WS02006243           JUNCTION      0.00   418.07     0  02:56           0         2.1      -0.084
  WS02006245           JUNCTION      0.00   416.99     0  02:56           0         2.1       0.291
  WS02006247           JUNCTION      0.00   416.94     0  02:56           0        2.09       0.008
  WS02006248           JUNCTION      0.00   417.88     0  02:56           0        2.09       0.089
  WS02006249           JUNCTION      0.00   459.02     0  00:00           0        2.39       0.214
  WS02006251           JUNCTION      0.08   406.88     0  02:02     0.00219        2.39      -0.051
  WS02006252           JUNCTION      0.00   400.00     0  00:00           0        2.38       0.006
  WS02006256           JUNCTION      0.00   300.00     0  00:00           0        1.65      -0.192
  WSF200               JUNCTION      0.00   536.96     0  02:40           0         3.4       0.009
  YS02001580           JUNCTION      0.00   122.45     0  01:55           0     0.00446       1.477
  YS02001583           JUNCTION      0.00   206.70     0  01:56           0      0.0155      -5.554
  YS02001586           JUNCTION    624.32   624.32     0  02:04        1.42        1.43       0.093
  YS02001590           JUNCTION      0.00   318.03     0  02:15           0        1.18      -0.042
  YS02001593           JUNCTION      0.00   317.95     0  02:16           0        1.19      -0.002
  YS02001596           JUNCTION      0.00   318.06     0  02:15           0        1.19      -0.012
  YS02001600           JUNCTION      0.00   318.03     0  01:59           0        1.19       0.003
  YS02001601           JUNCTION   1160.19  1477.54     0  02:03        1.99        3.17       0.011
  YS02001602           JUNCTION      0.00   535.46     0  01:55           0        2.06       0.019
  YS02001605           JUNCTION      0.00   535.22     0  01:55           0        1.96       0.018
  YS02001607           JUNCTION      0.00   534.73     0  01:55           0        1.96       0.093
  YS02001610           JUNCTION      0.00   572.88     0  02:04           0        2.07       0.096
  YS02001613           JUNCTION      0.00   551.43     0  01:55           0        1.69       0.086
  YS02001616           JUNCTION      0.00   560.03     0  01:55           0        1.69       0.020
  YS02001619           JUNCTION   1112.57  1112.57     0  02:04        2.27        3.85      -0.006
  YS02001622           JUNCTION      0.00   930.83     0  01:56           0        3.74      -0.006
  YS02001625           JUNCTION      0.00  1192.95     0  02:04           0        3.86       0.224
  YS02001629           JUNCTION      0.00   942.55     0  01:56           0        3.12       0.007
  YS02001633           JUNCTION    870.42  1400.31     0  01:57        1.45         4.4       0.075
  YS02001641           JUNCTION      0.00  1398.35     0  01:57           0        4.26       0.062
  YS02001644           JUNCTION    779.05  1827.37     0  01:57        1.25         5.5       0.056
  YS02001647           JUNCTION      0.00  1827.54     0  01:57           0        5.25       0.006
  YS02001649           JUNCTION      0.00  2118.25     0  01:57           0        6.39       0.003
  YS02001652           JUNCTION      0.00   936.71     0  02:01           0        1.14      -0.105
  YS02001655           JUNCTION      0.15   934.68     0  02:01     0.00439        1.14       0.033
  YS02001658           JUNCTION      0.00   933.94     0  02:01           0        1.13      -0.093
  YS02001661           JUNCTION      0.00   925.96     0  02:01           0        1.13       0.005
  YS02001664           JUNCTION    767.14   767.14     0  02:02        1.13        1.13      -0.021
  YS02001745           JUNCTION    500.18   630.22     0  01:59       0.692       0.694       0.185
  YS02001748           JUNCTION      0.04   610.59     0  02:00     0.00128       0.696      -0.439
  YS02001751           JUNCTION      0.01   613.56     0  02:00    0.000313       0.706       0.092
  YS02001754           JUNCTION      0.26   615.48     0  02:00     0.00741        0.72      -0.203
  YS02001757           JUNCTION      0.00  3378.82     0  02:00           0        9.44       0.030
  YS02001759           JUNCTION    692.41  1415.76     0  02:00       0.954        2.33      -0.017
  YS02001762           JUNCTION      0.00   813.53     0  01:59           0        1.37      -0.011
  YS02001765           JUNCTION      0.00   812.22     0  01:59           0        1.37      -0.009
  YS02001767           JUNCTION      0.54   812.00     0  02:00      0.0152        1.37      -0.011
  YS02001770           JUNCTION    969.32   969.32     0  02:02        1.46         1.5      -0.038
  YS02001774           JUNCTION      0.00   456.28     0  01:58           0       0.161       0.567
  YS02001779           JUNCTION      0.01   463.00     0  01:58    0.000142       0.119      -0.654
  YS02001783           JUNCTION      0.00  1164.22     0  02:00           0         3.6       0.005
  YS02001784           JUNCTION      1.06  1165.80     0  02:00      0.0302        3.63       0.012
  YS02001786           JUNCTION      0.06  1166.03     0  02:00      0.0016        3.63       0.020
  YS02001788           JUNCTION      0.07  1166.36     0  02:00     0.00202        3.64       0.009
  YS02001790           JUNCTION      0.15  1180.79     0  02:00     0.00442        3.64       0.033
  YS02001791           JUNCTION      0.00  1283.11     0  02:03           0        3.64      -0.032
  YS02001793           JUNCTION      0.00  1255.64     0  02:00           0        3.64       0.006
  YS02001882           JUNCTION      0.00    51.57     0  01:57           0      0.0125       4.029
  YS02001884           JUNCTION      0.00    75.74     0  01:55           0      0.0481       5.209
  YS02001887           JUNCTION    756.00   756.48     0  02:01           1        1.04       0.410
  YS02001890           JUNCTION      0.00   756.39     0  02:01           0       0.996       0.499
  YS02001895           JUNCTION      0.00   517.80     0  02:05           0       0.926       0.151
  YS02001898           JUNCTION      0.00   518.18     0  02:05           0       0.925       0.007
  YS02001901           JUNCTION      0.00   517.96     0  02:05           0       0.927       0.342
  YS02001904           JUNCTION      0.00   517.64     0  02:05           0       0.932       0.281
  YS02001907           JUNCTION      0.00  1804.66     0  02:02           0        3.12       0.556
  YS02001910           JUNCTION      0.00  1288.64     0  02:02           0         2.2       0.319
  YS02001915           JUNCTION    845.12  1287.86     0  02:02        1.39        2.24       0.063
  YS02001918           JUNCTION      0.00   480.27     0  01:58           0        0.89       0.013
  YS02001920           JUNCTION      2.87   486.73     0  01:58      0.0818        0.87       0.101
  YS02001923           JUNCTION      0.04   486.79     0  01:58     0.00107       0.772      -0.084
  YS02001926           JUNCTION      0.05   672.85     0  01:59     0.00149        0.75      -0.182
  YS02001929           JUNCTION    405.06   611.38     0  01:58       0.731       0.735       0.016
  YS02006553           JUNCTION      0.00   797.89     0  02:17           0        2.19       0.526
  YS02006556           JUNCTION      0.00   797.87     0  02:17           0        2.19       0.352
  YS02006558           JUNCTION    996.87  1165.89     0  01:58        1.46        3.63       0.094
  YS02006561           JUNCTION      0.00  1165.22     0  01:58           0         3.6      -0.003
  YS02163301           JUNCTION      0.00   928.88     0  01:57           0         3.1       0.043
  YS02163601           JUNCTION      0.11  1399.93     0  01:57     0.00313        4.25       0.111
  YS02164001           JUNCTION      0.00  1399.08     0  01:57           0        4.25       0.048
  CC-1                 OUTFALL       0.00   683.00     0  00:00           0        3.82       0.000
  CC-2                 OUTFALL       0.00   683.00     0  00:00           0        3.64       0.000
  JK-1                 OUTFALL       0.00  1000.00     0  00:00           0        2.03       0.000
  JK-2                 OUTFALL       0.00  1000.00     0  00:00           0      0.0484       0.000
  WSC                  OUTFALL       0.00   555.17     0  02:43           0        3.92       0.000
  CC-storage           STORAGE       0.00  3377.95     0  02:00           0        11.7      -0.163
  JK-storage           STORAGE       0.00  1261.96     0  01:59           0        3.79      -0.335
  
  
  **********************
  Node Surcharge Summary
  **********************
  
  Surcharging occurs when water rises above the top of the highest conduit.
  ---------------------------------------------------------------------
                                               Max. Height   Min. Depth
                                   Hours       Above Crown    Below Rim
  Node                 Type      Surcharged         Meters       Meters
  ---------------------------------------------------------------------
  WS02006109           JUNCTION        1.45          0.233        1.587
  WS02006110           JUNCTION        1.11          0.119        1.731
  WS02006112           JUNCTION        1.04          0.067        1.613
  WS02006228           JUNCTION        1.45          0.246        1.954
  WS02006229           JUNCTION        1.45          0.285        2.165
  WS02006230           JUNCTION        1.11          0.140        1.430
  WS02006231           JUNCTION        1.13          0.239        1.291
  WS02006232           JUNCTION        1.47          0.429        1.051
  WS02006234           JUNCTION        1.22          0.505        0.735
  WS02006235           JUNCTION        1.45          0.543        0.747
  WS02006238           JUNCTION        1.46          0.572        0.858
  WS02006239           JUNCTION        1.45          0.541        0.749
  WS02006240           JUNCTION        1.45          0.528        0.862
  WS02006242           JUNCTION        1.46          0.569        0.251
  WS02006243           JUNCTION        1.44          0.475        0.295
  WS02006245           JUNCTION        1.44          0.442        0.408
  WS02006247           JUNCTION        1.44          0.446        0.314
  WS02006248           JUNCTION        1.43          0.374        0.006
  WS02006249           JUNCTION        1.43          0.390        0.000
  WS02006251           JUNCTION        1.15          0.342        0.838
  WS02006252           JUNCTION        1.61          1.100        0.000
  WS02006256           JUNCTION        3.32          2.050        0.000
  YS02001580           JUNCTION        0.51          0.450        0.000
  YS02001583           JUNCTION        0.53          0.500        0.000
  YS02001586           JUNCTION        0.65          0.510        0.000
  YS02001590           JUNCTION        0.72          0.750        0.000
  YS02001593           JUNCTION        0.72          0.840        0.000
  YS02001596           JUNCTION        0.82          0.949        0.121
  YS02001600           JUNCTION        0.96          1.190        0.000
  YS02001601           JUNCTION        1.32          1.440        0.000
  YS02001602           JUNCTION        1.19          1.270        0.000
  YS02001605           JUNCTION        1.14          1.180        0.000
  YS02001607           JUNCTION        0.70          0.680        0.000
  YS02001610           JUNCTION        0.72          0.680        0.000
  YS02001613           JUNCTION        0.69          0.700        0.000
  YS02001616           JUNCTION        0.66          0.610        0.000
  YS02001619           JUNCTION        0.64          0.610        0.000
  YS02001622           JUNCTION        0.64          0.620        0.000
  YS02001625           JUNCTION        0.81          0.780        0.000
  YS02001629           JUNCTION        0.60          0.470        0.000
  YS02001633           JUNCTION        0.83          1.060        0.000
  YS02001641           JUNCTION        0.78          0.957        0.143
  YS02001644           JUNCTION        0.75          0.920        0.000
  YS02001647           JUNCTION        0.57          0.900        0.000
  YS02001649           JUNCTION        0.68          1.050        0.000
  YS02001652           JUNCTION        0.49          1.023        0.107
  YS02001655           JUNCTION        0.34          1.013        0.187
  YS02001658           JUNCTION        0.17          1.030        0.270
  YS02001661           JUNCTION        0.01          0.543        0.847
  YS02001745           JUNCTION        0.01          0.835        0.515
  YS02001748           JUNCTION        0.13          1.072        0.118
  YS02001751           JUNCTION        0.24          1.192        0.008
  YS02001754           JUNCTION        0.41          1.144        0.006
  YS02001757           JUNCTION        0.74          1.210        0.000
  YS02001759           JUNCTION        0.65          1.182        0.028
  YS02001762           JUNCTION        0.61          1.150        0.000
  YS02001765           JUNCTION        0.57          1.100        0.000
  YS02001767           JUNCTION        0.54          1.030        0.000
  YS02001770           JUNCTION        0.52          0.920        0.000
  YS02001774           JUNCTION        0.60          1.050        0.000
  YS02001779           JUNCTION        0.39          0.680        0.000
  YS02001783           JUNCTION        0.47          0.774        0.826
  YS02001784           JUNCTION        0.45          0.508        0.982
  YS02001786           JUNCTION        0.36          0.249        1.181
  YS02001882           JUNCTION        0.43          0.830        0.000
  YS02001884           JUNCTION        0.44          0.836        0.034
  YS02001887           JUNCTION        0.47          0.902        0.048
  YS02001890           JUNCTION        0.48          0.760        0.000
  YS02001895           JUNCTION        0.42          0.750        0.000
  YS02001898           JUNCTION        0.41          0.740        0.000
  YS02001901           JUNCTION        0.45          0.822        0.048
  YS02001904           JUNCTION        0.45          0.688        0.162
  YS02001907           JUNCTION        0.66          0.950        0.000
  YS02001910           JUNCTION        0.50          1.100        0.000
  YS02001915           JUNCTION        0.42          1.000        0.000
  YS02001918           JUNCTION        0.35          0.810        0.000
  YS02001920           JUNCTION        0.36          1.105        0.035
  YS02001923           JUNCTION        0.03          0.820        0.000
  YS02001926           JUNCTION        0.08          0.900        0.000
  YS02001929           JUNCTION        0.01          0.780        0.000
  YS02006553           JUNCTION        0.68          1.070        0.120
  YS02006556           JUNCTION        0.58          1.122        0.228
  YS02006558           JUNCTION        0.57          1.130        0.270
  YS02006561           JUNCTION        0.31          0.616        0.534
  YS02163301           JUNCTION        0.81          0.962        0.068
  YS02163601           JUNCTION        0.86          1.080        0.000
  YS02164001           JUNCTION        0.79          0.991        0.109
  
  
  *********************
  Node Flooding Summary
  *********************
  
  Flooding refers to all water that overflows a node, whether it ponds or not.
  --------------------------------------------------------------------------
                                                             Total   Maximum
                                 Maximum   Time of Max       Flood    Ponded
                        Hours       Rate    Occurrence      Volume     Depth
  Node                 Flooded       LPS   days hr:min    10^6 ltr    Meters
  --------------------------------------------------------------------------
  WS02006249              1.14    100.93      0  02:02       0.289     0.000
  WS02006252              0.01    245.63      0  00:00       0.000     0.000
  WS02006256              1.53    293.19      0  00:00       0.496     0.000
  YS02001580              0.01     98.72      0  01:56       0.000     0.000
  YS02001583              0.01    169.39      0  01:56       0.000     0.000
  YS02001586              0.41    306.83      0  02:04       0.236     0.000
  YS02001590              0.01     57.97      0  01:54       0.000     0.000
  YS02001593              0.01     18.19      0  01:54       0.000     0.000
  YS02001600              0.01      4.28      0  01:54       0.000     0.000
  YS02001601              0.58   1079.53      0  02:03       1.111     0.000
  YS02001602              0.50     62.00      0  02:01       0.099     0.000
  YS02001605              0.01      3.92      0  01:56       0.000     0.000
  YS02001607              0.01      0.38      0  02:24       0.000     0.000
  YS02001610              0.42    572.55      0  02:04       0.486     0.000
  YS02001613              0.01     14.65      0  01:56       0.000     0.000
  YS02001616              0.01     30.12      0  01:55       0.000     0.000
  YS02001619              0.01     25.24      0  01:55       0.000     0.000
  YS02001622              0.01    181.79      0  01:55       0.000     0.000
  YS02001625              0.39   1192.93      0  02:04       0.877     0.000
  YS02001629              0.09    239.16      0  02:01       0.045     0.000
  YS02001633              0.01      2.67      0  01:57       0.000     0.000
  YS02001644              0.15    771.08      0  02:01       0.238     0.000
  YS02001647              0.01     71.92      0  01:57       0.000     0.000
  YS02001649              0.01    119.33      0  02:00       0.001     0.000
  YS02001757              0.01     20.64      0  02:00       0.000     0.000
  YS02001762              0.01     10.92      0  02:00       0.000     0.000
  YS02001765              0.01     66.39      0  01:58       0.000     0.000
  YS02001767              0.01    138.06      0  01:58       0.000     0.000
  YS02001770              0.01    197.15      0  01:58       0.001     0.000
  YS02001774              0.01      2.04      0  01:59       0.000     0.000
  YS02001779              0.13    419.35      0  01:58       0.102     0.000
  YS02001882              0.01     26.33      0  01:57       0.000     0.000
  YS02001890              0.13    244.02      0  02:01       0.065     0.000
  YS02001895              0.01     62.31      0  01:57       0.000     0.000
  YS02001898              0.01    130.94      0  01:57       0.000     0.000
  YS02001907              0.30   1630.07      0  02:02       0.929     0.000
  YS02001910              0.01     16.17      0  01:57       0.000     0.000
  YS02001915              0.01    184.42      0  01:57       0.000     0.000
  YS02001918              0.01    265.89      0  01:59       0.004     0.000
  YS02001923              0.01    325.15      0  01:59       0.001     0.000
  YS02001926              0.01    368.16      0  01:59       0.002     0.000
  YS02001929              0.01    140.12      0  01:59       0.000     0.000
  YS02163601              0.01      4.58      0  01:57       0.000     0.000
  
  
  **********************
  Storage Volume Summary
  **********************
  
  ------------------------------------------------------------------------------------------------
                         Average    Avg   Evap  Exfil     Maximum    Max    Time of Max    Maximum
                          Volume   Pcnt   Pcnt   Pcnt      Volume   Pcnt     Occurrence    Outflow
  Storage Unit           1000 m³   Full   Loss   Loss     1000 m³   Full    days hr:min        LPS
  ------------------------------------------------------------------------------------------------
  CC-storage               2.402   37.5    0.0    0.0       4.562   71.2       0  02:27    1783.53
  JK-storage               0.113   38.8    0.0    0.0       0.213   72.9       0  02:00    2300.00
  
  
  ***********************
  Outfall Loading Summary
  ***********************
  
  -----------------------------------------------------------
                         Flow       Avg       Max       Total
                         Freq      Flow      Flow      Volume
  Outfall Node           Pcnt       LPS       LPS    10^6 ltr
  -----------------------------------------------------------
  CC-1                  33.82    683.00    683.00       3.824
  CC-2                  32.07    683.00    683.00       3.636
  JK-1                  15.19   1000.00   1000.00       2.027
  JK-2                   0.25   1000.00   1000.00       0.048
  WSC                   99.93    201.37    555.17       3.918
  -----------------------------------------------------------
  System                36.25   3567.37   3366.23      13.453
  
  
  ********************
  Link Flow Summary
  ********************
  
  -----------------------------------------------------------------------------
                                 Maximum  Time of Max   Maximum    Max/    Max/
                                  |Flow|   Occurrence   |Veloc|    Full    Full
  Link                 Type          LPS  days hr:min     m/sec    Flow   Depth
  -----------------------------------------------------------------------------
  1                    CONDUIT    555.17     0  02:43      2.83    0.19    0.30
  WS02003060WS02003069 CONDUIT    553.48     0  02:41      1.64    0.22    0.34
  WS02003066WSF200     CONDUIT    536.96     0  02:40      2.85    0.09    0.22
  WS02003067WS02003066 CONDUIT    536.91     0  02:40      1.21    0.17    0.42
  WS02003069WS02003072 CONDUIT    553.54     0  02:42      1.37    0.27    0.39
  WS02003072WS02003073 CONDUIT    553.43     0  02:42      1.44    1.20    0.37
  WS02004401WS02004402 CONDUIT    539.04     0  02:37      1.23    0.65    0.86
  WS02004402WS02004403 CONDUIT    538.62     0  02:38      1.24    0.77    0.88
  WS02004403WS02004404 CONDUIT    538.32     0  02:38      1.17    0.39    0.93
  WS02004404WS02004405 CONDUIT    538.44     0  02:38      1.43    5.28    0.96
  WS02004405WS02004406 CONDUIT    538.51     0  02:38      1.39    1.06    0.96
  WS02004406WS02004407 CONDUIT    538.04     0  02:38      1.04    0.24    0.63
  WS02004407WS02004409 CONDUIT    537.68     0  02:38      1.56    0.19    0.48
  WS02004409WS02004410 CONDUIT    537.47     0  02:39      1.04    0.70    0.67
  WS02004410WS02004411 CONDUIT    537.24     0  02:39      0.98    0.73    0.69
  WS02004411WS02004412 CONDUIT    537.16     0  02:39      0.92    0.76    0.69
  WS02004412WS02004413 CONDUIT    537.07     0  02:40      0.87    0.36    0.78
  WS02004413WS02003067 CONDUIT    536.86     0  02:40      1.11    0.23    0.59
  WS02006109WS02006110 CONDUIT    549.74     0  03:13      1.09    1.06    1.00
  WS02006110WS02006113 CONDUIT    558.39     0  03:12      1.34    0.51    0.79
  WS02006111WS02006112 CONDUIT    546.09     0  03:14      1.96    0.26    0.67
  WS02006112WS02006115 CONDUIT    546.95     0  02:24      0.85    0.32    0.87
  WS02006113WS02006111 CONDUIT    566.07     0  03:14      2.47    0.68    0.47
  WS02006115WS02006116 CONDUIT    540.81     0  02:37      1.19    0.69    0.76
  WS02006116WS02004401 CONDUIT    539.59     0  02:37      1.22    0.74    0.84
  WS02006228WS02006109 CONDUIT    548.37     0  03:13      1.09    2.40    1.00
  WS02006229WS02006228 CONDUIT    548.50     0  03:13      1.14    1.82    1.00
  WS02006230WS02006229 CONDUIT    548.22     0  03:13      1.42   12.20    1.00
  WS02006231WS02006230 CONDUIT    570.50     0  03:12      1.55    8.65    1.00
  WS02006232WS02006231 CONDUIT    570.53     0  03:12      1.48    1.20    1.00
  WS02006234WS02006232 CONDUIT    569.44     0  03:12      1.48    1.15    1.00
  WS02006235WS02006234 CONDUIT    565.29     0  03:12      1.47    5.96    1.00
  WS02006238WS02006235 CONDUIT    420.74     0  02:56      1.49    0.94    1.00
  WS02006239WS02006238 CONDUIT    419.43     0  02:56      1.10    1.34    1.00
  WS02006240WS02006239 CONDUIT    419.81     0  02:56      1.24    1.32    1.00
  WS02006242WS02006240 CONDUIT    418.07     0  02:56      1.13    1.66    1.00
  WS02006243WS02006242 CONDUIT    418.75     0  02:56      1.40    0.89    1.00
  WS02006245WS02006243 CONDUIT    418.07     0  02:56      1.45    1.24    1.00
  WS02006247WS02006245 CONDUIT    416.99     0  02:56      1.43    3.31    1.00
  WS02006248WS02006247 CONDUIT    416.94     0  02:56      1.44    0.91    1.00
  WS02006249WS02006248 CONDUIT    417.88     0  02:56      1.36    2.29    1.00
  WS02006251WS02006249 CONDUIT    459.02     0  00:00      1.99    1.32    1.00
  WS02006252WS02006251 CONDUIT    406.81     0  02:02     25.30    1.49    1.00
  WS02006256WS02006235 CONDUIT    288.91     0  00:00      4.23    3.06    1.00
  WSF200WS02003060     CONDUIT    537.09     0  02:40      2.06    0.12    0.28
  YS02001580YS02001583 CONDUIT    122.45     0  01:55      0.76    0.47    1.00
  YS02001583YS02001586 CONDUIT    176.96     0  01:56      0.76    0.27    1.00
  YS02001586YS02001590 CONDUIT    318.03     0  02:15      1.26    0.56    1.00
  YS02001590YS02001593 CONDUIT    317.95     0  02:16      1.12    2.00    1.00
  YS02001593YS02001596 CONDUIT    318.06     0  02:15      1.74    0.50    1.00
  YS02001596YS02001600 CONDUIT    318.03     0  01:59      1.23    0.62    1.00
  YS02001600YS02001601 CONDUIT    318.14     0  01:59      1.13    0.55    1.00
  YS02001601YS02001602 CONDUIT    535.46     0  01:55      1.89    1.93    1.00
  YS02001602YS02001605 CONDUIT    535.22     0  01:55      1.89   11.33    1.00
  YS02001605YS02001607 CONDUIT    534.73     0  01:55      1.89    2.93    1.00
  YS02001607YS02001610 CONDUIT    545.02     0  01:55      0.69    0.52    1.00
  YS02001610YS02001613 CONDUIT    551.43     0  01:55      0.70    0.64    1.00
  YS02001613YS02001616 CONDUIT    560.03     0  01:55      0.72    0.48    1.00
  YS02001616YS02001619 CONDUIT    509.22     0  01:55      0.67    0.88    1.00
  YS02001619YS02001622 CONDUIT    930.83     0  01:56      1.21    1.37    1.00
  YS02001622YS02001625 CONDUIT    942.69     0  01:56      1.20    0.50    1.00
  YS02001625YS02001629 CONDUIT    942.55     0  01:56      1.21    0.45    1.00
  YS02001629YS02163301 CONDUIT    928.88     0  01:57      1.18    1.14    1.00
  YS02001633YS02163601 CONDUIT   1399.82     0  01:57      1.78    1.47    1.00
  YS02001641YS02001644 CONDUIT   1398.46     0  01:57      1.78    4.52    1.00
  YS02001644YS02001647 CONDUIT   1827.54     0  01:57      2.35    1.07    1.00
  YS02001647YS02001649 CONDUIT   1832.80     0  01:57      2.34    0.97    1.00
  YS02001649YS02001757 CONDUIT   2085.56     0  01:57      2.66    1.27    1.00
  YS02001652YS02001649 CONDUIT    941.54     0  02:01      1.20    0.47    1.00
  YS02001655YS02001652 CONDUIT    936.71     0  02:01      1.37    0.45    1.00
  YS02001658YS02001655 CONDUIT    934.52     0  02:01      1.94    0.40    1.00
  YS02001661YS02001658 CONDUIT    933.94     0  02:01      2.35    0.37    1.00
  YS02001664YS02001661 CONDUIT    925.96     0  02:01      2.39    0.29    0.94
  YS02001745YS02001748 CONDUIT    610.55     0  02:00      2.25    0.24    1.00
  YS02001748YS02001751 CONDUIT    613.55     0  02:00      1.76    0.31    1.00
  YS02001751YS02001754 CONDUIT    615.22     0  02:00      1.48    0.30    1.00
  YS02001754YS02001757 CONDUIT    617.35     0  02:00      0.79    0.25    1.00
  YS02001757CaochengTiaoxuchi CONDUIT   3377.95     0  02:00      4.30    1.46    1.00
  YS02001759YS02001757 CONDUIT   1423.25     0  02:00      1.81    1.01    1.00
  YS02001762YS02001759 CONDUIT    813.82     0  02:00      1.04    0.94    1.00
  YS02001765YS02001762 CONDUIT    813.53     0  01:59      1.04    0.76    1.00
  YS02001767YS02001765 CONDUIT    812.22     0  01:59      1.03    1.02    1.00
  YS02001770YS02001767 CONDUIT    811.46     0  02:00      1.03    3.21    1.00
  YS02001774YS02001770 CONDUIT    456.28     0  01:58      0.58    0.29    1.00
  YS02001779YS02001774 CONDUIT    462.99     0  01:58      0.60    0.23    1.00
  YS02001783YS02001784 CONDUIT   1164.74     0  02:00      2.32    1.61    1.00
  YS02001784YS02001785 CONDUIT   1165.98     0  02:00      2.32    2.71    1.00
  YS02001786YS02001788 CONDUIT   1166.29     0  02:00      2.48    2.25    0.89
  YS02001788YS02001790 CONDUIT   1180.63     0  02:00      2.73    0.87    0.84
  YS02001790YS02001791 CONDUIT   1283.11     0  02:03      3.43    1.40    0.70
  YS02001791YS02001793 CONDUIT   1255.64     0  02:00      6.74    0.54    0.45
  YS02001793JiankangQianchi CONDUIT   1261.96     0  01:59      2.52    0.10    0.66
  YS02001882YS02001884 CONDUIT     51.57     0  01:57      0.11    0.06    1.00
  YS02001884YS02001887 CONDUIT     75.74     0  01:55      0.10    0.10    1.00
  YS02001887YS02001890 CONDUIT    756.39     0  02:01      0.96    1.29    1.00
  YS02001890YS02001895 CONDUIT    517.80     0  02:05      0.66    0.24    1.00
  YS02001895YS02001898 CONDUIT    518.18     0  02:05      0.66    0.90    1.00
  YS02001898YS02001901 CONDUIT    517.96     0  02:05      0.66    0.33    1.00
  YS02001901YS02001904 CONDUIT    517.64     0  02:05      0.66    0.80    1.00
  YS02001904YS02001907 CONDUIT    517.83     0  02:03      0.66    0.18    1.00
  YS02001907YS02006553 CONDUIT    797.89     0  02:17      0.89    0.94    1.00
  YS02001910YS02001907 CONDUIT   1288.00     0  02:02      1.64    0.73    1.00
  YS02001915YS02001910 CONDUIT   1288.64     0  02:02      1.64    0.64    1.00
  YS02001918YS02001915 CONDUIT    480.27     0  01:58      0.61    0.26    1.00
  YS02001920YS02001918 CONDUIT    483.86     0  01:58      0.64    0.47    1.00
  YS02001923YS02001920 CONDUIT    486.75     0  01:58      0.70    0.22    1.00
  YS02001926YS02001923 CONDUIT    461.18     0  01:58      0.97    0.66    1.00
  YS02001929YS02001926 CONDUIT    438.98     0  02:02      1.16    0.21    1.00
  YS02006553YS02006556 CONDUIT    797.87     0  02:17      1.02    0.68    1.00
  YS02006556YS02006558 CONDUIT    798.91     0  02:17      1.02    0.63    1.00
  YS02006558YS02006561 CONDUIT   1165.22     0  01:58      4.12    2.58    1.00
  YS02006561YS02001783 CONDUIT   1164.22     0  02:00      2.32    0.60    1.00
  YS02163301YS02001633 CONDUIT    928.93     0  01:57      1.18    0.87    1.00
  YS02163601YS02164001 CONDUIT   1399.08     0  01:57      1.78    1.24    1.00
  YS02164001YS02001641 CONDUIT   1398.35     0  01:57      1.78    1.91    1.00
  CC-R1                PUMP       683.00     0  00:00              1.00
  CC-R2                PUMP       683.00     0  00:00              1.00
  CC-S1                PUMP       200.00     0  00:00              1.00
  CC-S2                PUMP       200.00     0  00:00              1.00
  JK-R1                PUMP      1000.00     0  00:00              1.00
  JK-R2                PUMP      1000.00     0  00:00              1.00
  JK-S                 PUMP       300.00     0  00:00              1.00
  
  
  ***************************
  Flow Classification Summary
  ***************************
  
  -------------------------------------------------------------------------------------
                      Adjusted    ---------- Fraction of Time in Flow Class ---------- 
                       /Actual         Up    Down  Sub   Sup   Up    Down  Norm  Inlet 
  Conduit               Length    Dry  Dry   Dry   Crit  Crit  Crit  Crit  Ltd   Ctrl  
  -------------------------------------------------------------------------------------
  1                       1.00   0.00  0.00  0.00  0.00  1.00  0.00  0.00  0.62  0.00
  WS02003060WS02003069    1.00   0.00  0.00  0.00  0.97  0.03  0.00  0.00  0.78  0.00
  WS02003066WSF200        1.00   0.06  0.00  0.00  0.00  0.94  0.00  0.00  0.78  0.00
  WS02003067WS02003066    1.00   0.05  0.01  0.00  0.94  0.00  0.00  0.00  0.00  0.00
  WS02003069WS02003072    1.00   0.00  0.00  0.00  0.99  0.01  0.00  0.00  0.80  0.00
  WS02003072WS02003073    1.00   0.00  0.00  0.00  0.00  0.00  0.00  1.00  0.00  0.00
  WS02004401WS02004402    1.00   0.02  0.00  0.00  0.98  0.00  0.00  0.00  0.00  0.00
  WS02004402WS02004403    1.00   0.02  0.00  0.00  0.98  0.00  0.00  0.00  0.00  0.00
  WS02004403WS02004404    1.00   0.00  0.03  0.00  0.97  0.00  0.00  0.00  0.00  0.00
  WS02004404WS02004405    1.00   0.00  0.00  0.00  1.00  0.00  0.00  0.00  0.01  0.00
  WS02004405WS02004406    1.00   0.00  0.00  0.00  1.00  0.00  0.00  0.00  0.00  0.00
  WS02004406WS02004407    1.00   0.00  0.03  0.00  0.96  0.00  0.00  0.00  0.00  0.00
  WS02004407WS02004409    1.00   0.04  0.00  0.00  0.95  0.01  0.00  0.00  0.95  0.00
  WS02004409WS02004410    1.00   0.04  0.00  0.00  0.96  0.00  0.00  0.00  0.00  0.00
  WS02004410WS02004411    1.00   0.04  0.00  0.00  0.96  0.00  0.00  0.00  0.00  0.00
  WS02004411WS02004412    1.00   0.04  0.00  0.00  0.96  0.00  0.00  0.00  0.00  0.00
  WS02004412WS02004413    1.00   0.04  0.00  0.00  0.96  0.00  0.00  0.00  0.00  0.00
  WS02004413WS02003067    1.00   0.04  0.01  0.00  0.00  0.00  0.95  0.00  0.00  0.00
  WS02006109WS02006110    1.00   0.00  0.01  0.00  0.98  0.00  0.01  0.00  0.00  0.00
  WS02006110WS02006113    1.00   0.01  0.01  0.00  0.98  0.00  0.00  0.00  0.00  0.00
  WS02006111WS02006112    1.00   0.02  0.00  0.00  0.98  0.00  0.00  0.00  0.98  0.00
  WS02006112WS02006115    1.00   0.02  0.00  0.00  0.97  0.00  0.00  0.00  0.00  0.00
  WS02006113WS02006111    1.00   0.02  0.00  0.00  0.00  0.98  0.00  0.00  0.10  0.00
  WS02006115WS02006116    1.00   0.02  0.00  0.00  0.97  0.00  0.00  0.01  0.00  0.00
  WS02006116WS02004401    1.00   0.02  0.00  0.00  0.98  0.00  0.00  0.00  0.00  0.00
  WS02006228WS02006109    1.00   0.00  0.00  0.00  1.00  0.00  0.00  0.00  0.00  0.00
  WS02006229WS02006228    1.00   0.00  0.00  0.00  0.99  0.00  0.00  0.01  0.00  0.00
  WS02006230WS02006229    1.00   0.00  0.00  0.00  0.99  0.00  0.00  0.01  0.00  0.00
  WS02006231WS02006230    1.00   0.00  0.00  0.00  0.19  0.00  0.81  0.00  0.00  0.00
  WS02006232WS02006231    1.00   0.00  0.00  0.00  0.99  0.00  0.01  0.00  0.00  0.00
  WS02006234WS02006232    1.00   0.00  0.00  0.00  1.00  0.00  0.00  0.00  0.44  0.00
  WS02006235WS02006234    1.00   0.00  0.00  0.00  0.51  0.00  0.49  0.00  0.00  0.00
  WS02006238WS02006235    1.00   0.00  0.00  0.00  1.00  0.00  0.00  0.00  0.00  0.00
  WS02006239WS02006238    1.00   0.00  0.00  0.00  1.00  0.00  0.00  0.00  0.58  0.00
  WS02006240WS02006239    1.00   0.00  0.00  0.00  0.37  0.00  0.00  0.63  0.02  0.00
  WS02006242WS02006240    1.00   0.00  0.00  0.00  1.00  0.00  0.00  0.00  0.00  0.00
  WS02006243WS02006242    1.00   0.00  0.00  0.00  0.99  0.00  0.00  0.00  0.73  0.00
  WS02006245WS02006243    1.00   0.00  0.00  0.00  0.43  0.00  0.00  0.57  0.00  0.00
  WS02006247WS02006245    1.00   0.00  0.00  0.00  0.99  0.00  0.00  0.01  0.00  0.00
  WS02006248WS02006247    1.00   0.00  0.00  0.00  0.99  0.00  0.00  0.01  0.18  0.00
  WS02006249WS02006248    1.00   0.00  0.00  0.00  0.25  0.00  0.75  0.00  0.00  0.00
  WS02006251WS02006249    1.00   0.00  0.00  0.00  0.99  0.00  0.00  0.00  0.76  0.00
  WS02006252WS02006251    1.00   0.00  0.33  0.00  0.14  0.00  0.52  0.00  0.00  0.00
  WS02006256WS02006235    1.00   0.00  0.00  0.00  0.99  0.00  0.00  0.00  0.00  0.00
  WSF200WS02003060        1.00   0.00  0.06  0.00  0.56  0.38  0.00  0.00  0.72  0.00
  YS02001580YS02001583    1.00   0.24  0.58  0.00  0.18  0.00  0.00  0.00  0.67  0.00
  YS02001583YS02001586    1.00   0.42  0.34  0.00  0.24  0.00  0.00  0.00  0.67  0.00
  YS02001586YS02001590    1.00   0.13  0.00  0.00  0.42  0.04  0.00  0.41  0.36  0.00
  YS02001590YS02001593    1.00   0.13  0.01  0.00  0.10  0.00  0.76  0.00  0.00  0.00
  YS02001593YS02001596    1.00   0.14  0.00  0.00  0.12  0.01  0.00  0.73  0.02  0.00
  YS02001596YS02001600    1.00   0.14  0.00  0.00  0.18  0.01  0.00  0.66  0.05  0.00
  YS02001600YS02001601    1.00   0.13  0.01  0.00  0.86  0.00  0.00  0.00  0.61  0.00
  YS02001601YS02001602    1.00   0.13  0.01  0.00  0.86  0.00  0.00  0.00  0.00  0.00
  YS02001602YS02001605    1.00   0.14  0.00  0.00  0.86  0.00  0.00  0.00  0.00  0.00
  YS02001605YS02001607    1.00   0.14  0.00  0.00  0.86  0.00  0.00  0.00  0.00  0.00
  YS02001607YS02001610    1.00   0.13  0.01  0.00  0.86  0.00  0.00  0.00  0.02  0.00
  YS02001610YS02001613    1.00   0.13  0.00  0.00  0.87  0.00  0.00  0.00  0.01  0.00
  YS02001613YS02001616    1.00   0.13  0.00  0.00  0.87  0.00  0.00  0.00  0.01  0.00
  YS02001616YS02001619    1.00   0.13  0.00  0.00  0.87  0.00  0.00  0.00  0.00  0.00
  YS02001619YS02001622    1.00   0.13  0.00  0.00  0.87  0.00  0.00  0.00  0.28  0.00
  YS02001622YS02001625    1.00   0.13  0.00  0.00  0.87  0.00  0.00  0.00  0.05  0.00
  YS02001625YS02001629    1.00   0.13  0.05  0.00  0.15  0.00  0.67  0.00  0.00  0.00
  YS02001629YS02163301    1.00   0.16  0.01  0.00  0.83  0.00  0.00  0.00  0.00  0.00
  YS02001633YS02163601    1.00   0.00  0.01  0.00  0.99  0.00  0.00  0.00  0.15  0.00
  YS02001641YS02001644    1.00   0.00  0.01  0.00  0.99  0.00  0.00  0.00  0.00  0.00
  YS02001644YS02001647    1.00   0.00  0.18  0.00  0.82  0.00  0.00  0.00  0.00  0.00
  YS02001647YS02001649    1.00   0.00  0.18  0.00  0.53  0.29  0.00  0.00  0.57  0.00
  YS02001649YS02001757    1.00   0.00  0.00  0.00  0.68  0.32  0.00  0.00  0.49  0.00
  YS02001652YS02001649    1.00   0.00  0.00  0.00  0.96  0.04  0.00  0.00  0.76  0.00
  YS02001655YS02001652    1.00   0.00  0.00  0.00  0.16  0.01  0.00  0.82  0.05  0.00
  YS02001658YS02001655    1.00   0.00  0.14  0.00  0.65  0.21  0.00  0.00  0.70  0.00
  YS02001661YS02001658    1.00   0.14  0.00  0.00  0.49  0.37  0.00  0.00  0.70  0.00
  YS02001664YS02001661    1.00   0.13  0.00  0.00  0.78  0.09  0.00  0.00  0.85  0.00
  YS02001745YS02001748    1.00   0.00  0.00  0.00  0.09  0.01  0.00  0.91  0.04  0.00
  YS02001748YS02001751    1.00   0.00  0.00  0.00  0.82  0.18  0.00  0.00  0.78  0.00
  YS02001751YS02001754    1.00   0.00  0.00  0.00  0.14  0.00  0.00  0.85  0.02  0.00
  YS02001754YS02001757    1.00   0.00  0.00  0.00  1.00  0.00  0.00  0.00  0.85  0.00
  YS02001757CaochengTiaoxuchi    1.00   0.00  0.00  0.00  1.00  0.00  0.00  0.00  0.83  0.00
  YS02001759YS02001757    1.00   0.00  0.00  0.00  1.00  0.00  0.00  0.00  0.61  0.00
  YS02001762YS02001759    1.00   0.00  0.00  0.00  1.00  0.00  0.00  0.00  0.05  0.00
  YS02001765YS02001762    1.00   0.00  0.00  0.00  1.00  0.00  0.00  0.00  0.76  0.00
  YS02001767YS02001765    1.00   0.00  0.00  0.00  1.00  0.00  0.00  0.00  0.00  0.00
  YS02001770YS02001767    1.00   0.00  0.00  0.00  1.00  0.00  0.00  0.00  0.00  0.00
  YS02001774YS02001770    1.00   0.00  0.14  0.00  0.70  0.00  0.16  0.00  0.03  0.00
  YS02001779YS02001774    1.00   0.00  0.00  0.00  1.00  0.00  0.00  0.00  0.80  0.00
  YS02001783YS02001784    1.00   0.00  0.19  0.00  0.81  0.00  0.00  0.00  0.55  0.00
  YS02001784YS02001785    1.00   0.00  0.00  0.00  1.00  0.00  0.00  0.00  0.18  0.00
  YS02001786YS02001788    1.00   0.00  0.00  0.00  0.80  0.20  0.00  0.00  0.00  0.00
  YS02001788YS02001790    1.00   0.00  0.00  0.00  0.21  0.79  0.00  0.00  0.82  0.00
  YS02001790YS02001791    1.00   0.00  0.00  0.00  0.01  0.99  0.00  0.00  0.16  0.00
  YS02001791YS02001793    1.00   0.00  0.00  0.00  0.00  1.00  0.00  0.00  0.01  0.00
  YS02001793JiankangQianchi    1.00   0.00  0.00  0.00  0.97  0.03  0.00  0.00  0.98  0.00
  YS02001882YS02001884    1.00   0.16  0.01  0.00  0.83  0.00  0.00  0.00  0.00  0.00
  YS02001884YS02001887    1.00   0.06  0.05  0.00  0.89  0.00  0.00  0.00  0.00  0.00
  YS02001887YS02001890    1.00   0.00  0.00  0.00  0.97  0.00  0.03  0.00  0.00  0.00
  YS02001890YS02001895    1.00   0.00  0.17  0.00  0.83  0.00  0.00  0.00  0.00  0.00
  YS02001895YS02001898    1.00   0.17  0.00  0.00  0.81  0.00  0.02  0.00  0.00  0.00
  YS02001898YS02001901    1.00   0.17  0.00  0.00  0.82  0.00  0.00  0.00  0.01  0.00
  YS02001901YS02001904    1.00   0.17  0.00  0.00  0.83  0.00  0.00  0.00  0.00  0.00
  YS02001904YS02001907    1.00   0.00  0.17  0.00  0.83  0.00  0.00  0.00  0.00  0.00
  YS02001907YS02006553    1.00   0.00  0.02  0.00  0.98  0.00  0.00  0.00  0.00  0.00
  YS02001910YS02001907    1.00   0.00  0.00  0.00  0.97  0.00  0.00  0.03  0.12  0.00
  YS02001915YS02001910    1.00   0.00  0.00  0.00  0.96  0.04  0.00  0.00  0.17  0.00
  YS02001918YS02001915    1.00   0.00  0.01  0.00  0.98  0.02  0.00  0.00  0.76  0.00
  YS02001920YS02001918    1.00   0.00  0.01  0.00  0.99  0.00  0.00  0.00  0.00  0.00
  YS02001923YS02001920    1.00   0.00  0.00  0.00  1.00  0.00  0.00  0.00  0.93  0.00
  YS02001926YS02001923    1.00   0.00  0.07  0.00  0.05  0.00  0.87  0.00  0.00  0.00
  YS02001929YS02001926    1.00   0.00  0.13  0.00  0.87  0.00  0.00  0.00  0.83  0.00
  YS02006553YS02006556    1.00   0.01  0.00  0.00  0.99  0.00  0.00  0.00  0.03  0.00
  YS02006556YS02006558    1.00   0.00  0.00  0.00  1.00  0.00  0.00  0.00  0.00  0.00
  YS02006558YS02006561    1.00   0.19  0.00  0.00  0.05  0.76  0.00  0.00  0.19  0.00
  YS02006561YS02001783    1.00   0.19  0.00  0.00  0.08  0.73  0.00  0.00  0.69  0.00
  YS02163301YS02001633    1.00   0.00  0.16  0.00  0.84  0.00  0.00  0.00  0.00  0.00
  YS02163601YS02164001    1.00   0.00  0.08  0.00  0.92  0.00  0.00  0.00  0.00  0.00
  YS02164001YS02001641    1.00   0.01  0.07  0.00  0.92  0.00  0.00  0.00  0.06  0.00
  
  
  *************************
  Conduit Surcharge Summary
  *************************
  
  ----------------------------------------------------------------------------
                                                           Hours        Hours 
                         --------- Hours Full --------   Above Full   Capacity
  Conduit                Both Ends  Upstream  Dnstream   Normal Flow   Limited
  ----------------------------------------------------------------------------
  WS02003072WS02003073        0.01      0.01      0.01      1.16         0.01
  WS02004404WS02004405        0.01      0.01      0.01      1.98         0.01
  WS02004405WS02004406        0.01      0.01      0.01      1.02         0.01
  WS02006109WS02006110        1.11      1.11      1.47      1.13         0.01
  WS02006110WS02006113        0.01      0.01      1.47      0.01         0.01
  WS02006111WS02006112        0.01      0.01      1.53      0.01         0.01
  WS02006112WS02006115        0.01      0.01      1.04      0.01         0.01
  WS02006228WS02006109        1.45      1.47      1.45      1.66         1.45
  WS02006229WS02006228        1.45      1.45      1.45      1.58         1.44
  WS02006230WS02006229        1.49      1.51      1.49      2.48         1.49
  WS02006231WS02006230        1.10      1.10      1.14      2.25         0.01
  WS02006232WS02006231        1.13      1.13      1.47      1.15         0.01
  WS02006234WS02006232        1.44      1.44      1.47      1.14         1.15
  WS02006235WS02006234        1.22      1.22      1.44      2.12         0.01
  WS02006238WS02006235        1.45      1.45      1.47      0.01         0.01
  WS02006239WS02006238        1.46      1.46      1.46      1.52         1.35
  WS02006240WS02006239        1.45      1.45      1.45      1.52         1.25
  WS02006242WS02006240        1.45      1.45      1.48      1.57         0.01
  WS02006243WS02006242        1.44      1.44      1.46      0.01         0.01
  WS02006245WS02006243        1.44      1.44      1.44      0.41         0.47
  WS02006247WS02006245        1.44      1.44      1.44      1.68         1.44
  WS02006248WS02006247        1.43      1.43      1.44      0.01         0.01
  WS02006249WS02006248        1.43      1.43      1.43      1.67         0.01
  WS02006251WS02006249        1.43      1.43      1.43      1.59         1.41
  WS02006252WS02006251        1.61      1.61      1.61      1.61         0.01
  WS02006256WS02006235        2.19      2.20      3.32      1.53         0.01
  YS02001580YS02001583        0.51      0.51      0.57      0.01         0.01
  YS02001583YS02001586        0.53      0.53      0.65      0.01         0.01
  YS02001586YS02001590        0.66      0.66      0.72      0.01         0.01
  YS02001590YS02001593        0.72      0.72      0.73      0.76         0.01
  YS02001593YS02001596        0.73      0.73      0.82      0.01         0.01
  YS02001596YS02001600        0.86      0.86      0.96      0.01         0.01
  YS02001600YS02001601        1.01      1.01      1.32      0.01         0.01
  YS02001601YS02001602        1.19      1.19      1.35      0.96         0.01
  YS02001602YS02001605        1.14      1.14      1.19      2.13         0.01
  YS02001605YS02001607        1.09      1.14      1.09      1.28         1.09
  YS02001607YS02001610        0.70      0.70      0.72      0.01         0.01
  YS02001610YS02001613        0.69      0.69      0.72      0.01         0.01
  YS02001613YS02001616        0.66      0.66      0.69      0.01         0.01
  YS02001616YS02001619        0.64      0.64      0.66      0.01         0.01
  YS02001619YS02001622        0.64      0.64      0.64      0.73         0.61
  YS02001622YS02001625        0.64      0.64      0.81      0.01         0.01
  YS02001625YS02001629        0.60      0.60      0.81      0.01         0.01
  YS02001629YS02163301        0.81      0.81      0.81      0.10         0.14
  YS02001633YS02163601        0.83      0.83      0.86      0.31         0.30
  YS02001641YS02001644        0.75      0.78      0.75      1.39         0.74
  YS02001644YS02001647        0.57      0.57      0.75      0.03         0.01
  YS02001647YS02001649        0.57      0.57      0.68      0.01         0.01
  YS02001649YS02001757        0.67      0.68      0.74      0.06         0.03
  YS02001652YS02001649        0.52      0.52      0.68      0.01         0.01
  YS02001655YS02001652        0.34      0.34      0.49      0.01         0.01
  YS02001658YS02001655        0.17      0.17      0.34      0.01         0.01
  YS02001661YS02001658        0.01      0.01      0.17      0.01         0.01
  YS02001664YS02001661        0.01      0.01      0.03      0.01         0.01
  YS02001745YS02001748        0.01      0.01      0.13      0.01         0.01
  YS02001748YS02001751        0.16      0.16      0.24      0.01         0.01
  YS02001751YS02001754        0.24      0.24      0.41      0.01         0.01
  YS02001754YS02001757        0.44      0.44      0.74      0.01         0.01
  YS02001757CaochengTiaoxuchi        0.73      0.74      1.21      0.32         0.28
  YS02001759YS02001757        0.65      0.65      0.74      0.01         0.02
  YS02001762YS02001759        0.61      0.61      0.65      0.01         0.02
  YS02001765YS02001762        0.57      0.57      0.61      0.01         0.01
  YS02001767YS02001765        0.54      0.54      0.57      0.01         0.02
  YS02001770YS02001767        0.53      0.53      0.54      0.47         0.36
  YS02001774YS02001770        0.52      0.52      0.60      0.01         0.01
  YS02001779YS02001774        0.39      0.39      0.60      0.01         0.01
  YS02001783YS02001784        0.45      0.47      0.45      0.61         0.45
  YS02001784YS02001785        0.36      0.45      0.36      0.81         0.36
  YS02001786YS02001788        0.01      0.36      0.01      0.69         0.01
  YS02001790YS02001791        0.01      0.01      0.01      0.44         0.01
  YS02001793JiankangQianchi        0.01      0.01      7.59      0.01         0.01
  YS02001882YS02001884        0.43      0.43      0.44      0.01         0.01
  YS02001884YS02001887        0.46      0.46      0.47      0.01         0.01
  YS02001887YS02001890        0.48      0.48      0.49      0.09         0.01
  YS02001890YS02001895        0.42      0.42      0.50      0.01         0.01
  YS02001895YS02001898        0.41      0.41      0.42      0.01         0.01
  YS02001898YS02001901        0.42      0.42      0.45      0.01         0.01
  YS02001901YS02001904        0.45      0.45      0.45      0.01         0.01
  YS02001904YS02001907        0.45      0.45      0.68      0.01         0.01
  YS02001907YS02006553        0.82      0.82      0.88      0.01         0.01
  YS02001910YS02001907        0.50      0.50      0.66      0.01         0.01
  YS02001915YS02001910        0.42      0.42      0.50      0.01         0.01
  YS02001918YS02001915        0.35      0.35      0.42      0.01         0.01
  YS02001920YS02001918        0.35      0.35      0.36      0.01         0.01
  YS02001923YS02001920        0.30      0.30      0.36      0.01         0.01
  YS02001926YS02001923        0.03      0.03      0.08      0.01         0.01
  YS02001929YS02001926        0.01      0.01      0.08      0.01         0.01
  YS02006553YS02006556        0.58      0.58      0.68      0.01         0.01
  YS02006556YS02006558        0.62      0.62      0.69      0.01         0.01
  YS02006558YS02006561        0.38      0.57      0.38      0.77         0.38
  YS02006561YS02001783        0.31      0.31      0.47      0.01         0.01
  YS02163301YS02001633        0.81      0.81      0.85      0.01         0.01
  YS02163601YS02164001        0.79      0.79      0.86      0.05         0.01
  YS02164001YS02001641        0.78      0.79      0.78      0.64         0.58
  
  
  ***************
  Pumping Summary
  ***************
  
  ---------------------------------------------------------------------------------------------------------
                                                  Min       Avg       Max     Total     Power    % Time Off
                        Percent   Number of      Flow      Flow      Flow    Volume     Usage    Pump Curve
  Pump                 Utilized   Start-Ups       LPS       LPS       LPS  10^6 ltr     Kw-hr    Low   High
  ---------------------------------------------------------------------------------------------------------
  CC-R1                   19.64           2      0.00    683.00    683.00     3.823     70.39    0.0   25.9
  CC-R2                   18.68           2      0.00    683.00    683.00     3.635     66.92    0.0   27.2
  CC-S1                   21.41           2      0.00    200.00    200.00     1.221      7.09    0.0    0.0
  CC-S2                   20.36           2      0.00    200.00    200.00     1.160      6.72    0.0    0.0
  JK-R1                    7.11           5      0.00   1000.00   1000.00     2.027     19.59    0.0    0.0
  JK-R2                    0.17           1      0.00   1000.00   1000.00     0.047      0.36    0.0    0.0
  JK-S                    19.30           4      0.00    300.00    300.00     1.650     26.04    0.0    0.0
  

  Analysis begun on:  Thu Jan 16 14:25:03 2025
  Analysis ended on:  Thu Jan 16 14:25:04 2025
  Total elapsed time: 00:00:01