
  EPA STORM WATER MANAGEMENT MODEL - VERSION 5.2 (Build 5.2.4)
  PYSWMM TOOLKIT API - VERSION v1.0 (2023-11-27)
  ------------------------------------------------------------

  WARNING 04: minimum elevation drop used for Conduit WS02004404WS02004405
  WARNING 03: negative offset ignored for Link YS02001904YS02001907
  
  ****************
  Analysis Options
  ****************
  Flow Units ............... LPS
  Process Models:
    Rainfall/Runoff ........ YES
    RDII ................... NO
    Snowmelt ............... NO
    Groundwater ............ NO
    Flow Routing ........... YES
    Ponding Allowed ........ NO
    Water Quality .......... NO
  Infiltration Method ...... HORTON
  Flow Routing Method ...... DYNWAVE
  Surcharge Method ......... EXTRAN
  Starting Date ............ 08/28/2015 08:00:00
  Ending Date .............. 08/28/2015 16:00:00
  Antecedent Dry Days ...... 8.0
  Report Time Step ......... 00:01:00
  Wet Time Step ............ 00:01:00
  Dry Time Step ............ 00:01:00
  Routing Time Step ........ 30.00 sec
  Variable Time Step ....... YES
  Maximum Trials ........... 8
  Number of Threads ........ 4
  Head Tolerance ........... 0.001500 m
  
  
  **************************        Volume         Depth
  Runoff Quantity Continuity     hectare-m            mm
  **************************     ---------       -------
  Total Precipitation ......         1.981        59.716
  Evaporation Loss .........         0.000         0.000
  Infiltration Loss ........         0.101         3.049
  Surface Runoff ...........         1.847        55.682
  Final Storage ............         0.033         0.996
  Continuity Error (%) .....        -0.019
  
  
  **************************        Volume        Volume
  Flow Routing Continuity        hectare-m      10^6 ltr
  **************************     ---------     ---------
  Dry Weather Inflow .......         0.025         0.251
  Wet Weather Inflow .......         1.848        18.476
  Groundwater Inflow .......         0.000         0.000
  RDII Inflow ..............         0.000         0.000
  External Inflow ..........         0.083         0.834
  External Outflow .........         1.598        15.976
  Flooding Loss ............         0.426         4.263
  Evaporation Loss .........         0.000         0.000
  Exfiltration Loss ........         0.000         0.000
  Initial Stored Volume ....         0.243         2.431
  Final Stored Volume ......         0.181         1.808
  Continuity Error (%) .....        -0.255
  
  
  *************************
  Highest Continuity Errors
  *************************
  Node YS02001884 (5.05%)
  Node YS02001583 (-3.99%)
  Node WS02006256 (-1.49%)
  Node WS02006249 (1.11%)
  
  
  ***************************
  Time-Step Critical Elements
  ***************************
  Link WS02006252WS02006251 (45.60%)
  Link WS02004404WS02004405 (22.17%)
  Link WS02006238WS02006235 (9.62%)
  Link YS02001791YS02001793 (5.36%)
  Link WS02006235WS02006234 (4.21%)
  
  
  ********************************
  Highest Flow Instability Indexes
  ********************************
  Link WS02006113WS02006111 (29)
  Link YS02006558YS02006561 (13)
  Link WS02006256WS02006235 (12)
  Link WS02006111WS02006112 (11)
  Link YS02001607YS02001610 (10)
  
  
  *********************************
  Most Frequent Nonconverging Nodes
  *********************************
  Node CC-1 (12.19%)
  Node CC-2 (12.19%)
  Node JK-1 (12.19%)
  Node JK-2 (12.19%)
  Node WSC (12.19%)
  
  
  *************************
  Routing Time Step Summary
  *************************
  Minimum Time Step           :     0.03 sec
  Average Time Step           :     2.54 sec
  Maximum Time Step           :     6.43 sec
  % of Time in Steady State   :     0.00
  Average Iterations per Step :     3.11
  % of Steps Not Converging   :    12.19
  Time Step Frequencies       :
     30.000 - 13.228 sec      :     0.00 %
     13.228 -  5.833 sec      :    19.87 %
      5.833 -  2.572 sec      :    19.80 %
      2.572 -  1.134 sec      :     9.94 %
      1.134 -  0.500 sec      :    50.40 %
  
  
  ***************************
  Subcatchment Runoff Summary
  ***************************
  
  ------------------------------------------------------------------------------------------------------------------------------
                            Total      Total      Total      Total     Imperv       Perv      Total       Total     Peak  Runoff
                           Precip      Runon       Evap      Infil     Runoff     Runoff     Runoff      Runoff   Runoff   Coeff
  Subcatchment                 mm         mm         mm         mm         mm         mm         mm    10^6 ltr      LPS
  ------------------------------------------------------------------------------------------------------------------------------
  sub60                     59.72       0.00       0.00       1.81      51.35       5.36      56.70        0.75   508.97   0.950
  sub61                     59.72       0.00       0.00       2.63      48.43       7.52      55.95        1.03   707.81   0.937
  sub62                     59.72       0.00       0.00       1.21      53.65       3.57      57.22        1.57   997.72   0.958
  sub63                     59.72       0.00       0.00       4.90      41.43      12.42      53.85        1.22   807.41   0.902
  sub64                     59.72       0.00       0.00       2.47      49.55       6.49      56.04        1.35   818.65   0.938
  sub65                     59.72       0.00       0.00       2.14      50.70       5.63      56.32        1.55   914.39   0.943
  sub66                     59.72       0.00       0.00       6.10      41.32      11.22      52.54        2.45  1232.66   0.880
  sub67                     59.72       0.00       0.00       1.15      53.69       3.62      57.32        1.07   757.92   0.960
  sub68                     59.72       0.00       0.00       2.18      50.17       6.18      56.35        1.55  1023.86   0.944
  sub69                     59.72       0.00       0.00       1.97      50.64       6.99      57.64        2.13  1215.65   0.965
  sub70                     59.72       0.00       0.00       6.59      39.24      13.71      52.96        1.53   692.44   0.887
  sub71                     59.72       0.00       0.00       1.24      53.61       3.54      57.15        1.49   882.82   0.957
  sub72                     59.72       0.00       0.00       1.11      54.13       3.07      57.20        0.79   432.35   0.958
  
  
  ******************
  Node Depth Summary
  ******************
  
  ---------------------------------------------------------------------------------
                                 Average  Maximum  Maximum  Time of Max    Reported
                                   Depth    Depth      HGL   Occurrence   Max Depth
  Node                 Type       Meters   Meters   Meters  days hr:min      Meters
  ---------------------------------------------------------------------------------
  WS02003060           JUNCTION     0.18     0.37     5.30     0  02:49        0.37
  WS02003066           JUNCTION     0.15     0.29     5.84     0  02:48        0.29
  WS02003067           JUNCTION     0.42     0.69     6.01     0  02:48        0.69
  WS02003069           JUNCTION     0.19     0.41     5.00     0  02:49        0.41
  WS02003072           JUNCTION     0.25     0.48     4.86     0  02:50        0.48
  WS02003073           JUNCTION     0.14     0.29     4.35     0  02:51        0.29
  WS02004401           JUNCTION     0.49     0.84     6.84     0  02:45        0.83
  WS02004402           JUNCTION     0.52     0.86     6.82     0  02:46        0.86
  WS02004403           JUNCTION     0.55     0.88     6.81     0  02:45        0.88
  WS02004404           JUNCTION     0.62     0.95     6.80     0  02:45        0.95
  WS02004405           JUNCTION     0.62     0.94     6.79     0  02:46        0.94
  WS02004406           JUNCTION     0.64     0.95     6.78     0  02:46        0.94
  WS02004407           JUNCTION     0.13     0.29     6.60     0  02:46        0.29
  WS02004409           JUNCTION     0.28     0.64     6.41     0  02:47        0.64
  WS02004410           JUNCTION     0.31     0.66     6.38     0  02:47        0.66
  WS02004411           JUNCTION     0.34     0.67     6.35     0  02:47        0.67
  WS02004412           JUNCTION     0.36     0.68     6.32     0  02:48        0.68
  WS02004413           JUNCTION     0.52     0.84     6.31     0  02:48        0.84
  WS02006109           JUNCTION     0.55     1.83     8.44     0  02:42        1.83
  WS02006110           JUNCTION     0.56     1.20     7.78     0  02:42        1.04
  WS02006111           JUNCTION     0.14     0.29     6.99     0  02:35        0.29
  WS02006112           JUNCTION     0.64     1.03     6.91     0  02:45        1.02
  WS02006113           JUNCTION     0.20     0.46     7.35     0  02:35        0.46
  WS02006115           JUNCTION     0.37     0.73     6.87     0  02:45        0.73
  WS02006116           JUNCTION     0.46     0.81     6.85     0  02:45        0.81
  WS02006228           JUNCTION     0.53     2.00     8.65     0  02:42        2.00
  WS02006229           JUNCTION     0.49     1.80     8.50     0  02:42        1.80
  WS02006230           JUNCTION     0.47     1.36     8.10     0  02:41        1.11
  WS02006231           JUNCTION     0.30     1.13     8.26     0  02:41        0.86
  WS02006232           JUNCTION     0.42     1.25     8.29     0  02:41        1.07
  WS02006234           JUNCTION     0.33     1.20     8.36     0  02:41        1.08
  WS02006235           JUNCTION     0.36     1.30     8.46     0  02:39        1.21
  WS02006238           JUNCTION     0.39     1.34     8.48     0  02:39        1.23
  WS02006239           JUNCTION     0.35     1.32     8.53     0  02:39        1.18
  WS02006240           JUNCTION     0.32     1.28     8.57     0  02:39        1.17
  WS02006242           JUNCTION     0.39     1.40     8.67     0  02:39        1.22
  WS02006243           JUNCTION     0.30     1.33     8.75     0  02:39        1.14
  WS02006245           JUNCTION     0.30     1.31     8.79     0  02:39        1.12
  WS02006247           JUNCTION     0.33     1.27     8.77     0  02:39        1.14
  WS02006248           JUNCTION     0.29     1.10     8.69     0  02:39        1.09
  WS02006249           JUNCTION     0.32     1.09     8.69     0  02:32        1.09
  WS02006251           JUNCTION     0.32     1.44     9.11     0  02:41        1.15
  WS02006252           JUNCTION     0.26     1.50     9.74     0  00:00        0.70
  WS02006256           JUNCTION     0.69     2.35     9.28     0  00:00        2.35
  WSF200               JUNCTION     0.12     0.28     5.51     0  02:48        0.28
  YS02001580           JUNCTION     0.15     1.05     9.59     0  02:13        0.79
  YS02001583           JUNCTION     0.18     1.14     9.64     0  02:13        0.81
  YS02001586           JUNCTION     0.30     1.13     9.30     0  02:13        1.13
  YS02001590           JUNCTION     0.43     1.40     9.26     0  02:13        1.37
  YS02001593           JUNCTION     0.35     1.32     9.18     0  02:13        1.29
  YS02001596           JUNCTION     0.49     1.68     9.10     0  02:13        1.67
  YS02001600           JUNCTION     0.59     1.87     9.00     0  02:13        1.87
  YS02001601           JUNCTION     0.80     2.06     8.90     0  02:12        2.06
  YS02001602           JUNCTION     0.70     1.87     8.77     0  02:12        1.87
  YS02001605           JUNCTION     0.64     1.78     8.68     0  02:12        1.77
  YS02001607           JUNCTION     0.60     1.65     8.50     0  02:34        1.65
  YS02001610           JUNCTION     0.64     1.68     8.48     0  02:12        1.68
  YS02001613           JUNCTION     0.59     1.67     8.51     0  02:12        1.66
  YS02001616           JUNCTION     0.53     1.60     8.51     0  02:25        1.60
  YS02001619           JUNCTION     0.50     1.60     8.53     0  02:25        1.60
  YS02001622           JUNCTION     0.49     1.57     8.47     0  02:25        1.57
  YS02001625           JUNCTION     0.74     1.78     8.38     0  02:17        1.78
  YS02001629           JUNCTION     0.64     1.85     8.40     0  02:19        1.85
  YS02001633           JUNCTION     0.71     2.05     8.50     0  02:20        1.98
  YS02001641           JUNCTION     0.67     1.97     8.41     0  02:20        1.94
  YS02001644           JUNCTION     0.66     1.92     8.35     0  02:20        1.92
  YS02001647           JUNCTION     0.41     1.80     8.41     0  02:22        1.71
  YS02001649           JUNCTION     0.46     2.05     8.44     0  02:22        1.89
  YS02001652           JUNCTION     0.32     2.16     8.76     0  02:20        1.72
  YS02001655           JUNCTION     0.24     2.20     9.05     0  02:20        1.51
  YS02001658           JUNCTION     0.18     1.69     8.83     0  02:21        1.26
  YS02001661           JUNCTION     0.20     1.03     8.44     0  02:25        1.03
  YS02001664           JUNCTION     0.09     0.41     8.34     0  02:25        0.40
  YS02001745           JUNCTION     0.10     0.71     8.22     0  02:25        0.71
  YS02001748           JUNCTION     0.16     2.20     9.28     0  02:22        1.20
  YS02001751           JUNCTION     0.19     2.09     8.97     0  02:22        1.37
  YS02001754           JUNCTION     0.26     2.05     8.66     0  02:22        1.61
  YS02001757           JUNCTION     0.46     2.11     8.37     0  02:22        1.92
  YS02001759           JUNCTION     0.39     2.12     8.48     0  02:22        1.92
  YS02001762           JUNCTION     0.38     2.06     8.46     0  02:22        1.90
  YS02001765           JUNCTION     0.36     2.04     8.49     0  02:22        1.87
  YS02001767           JUNCTION     0.36     2.01     8.50     0  02:22        1.86
  YS02001770           JUNCTION     0.38     1.95     8.44     0  02:19        1.91
  YS02001774           JUNCTION     0.44     2.02     8.44     0  02:19        1.97
  YS02001779           JUNCTION     0.25     1.68     8.37     0  02:19        1.68
  YS02001783           JUNCTION     0.37     1.41     7.55     0  02:18        1.22
  YS02001784           JUNCTION     0.38     1.21     7.28     0  02:18        1.11
  YS02001786           JUNCTION     0.31     0.91     6.94     0  02:18        0.87
  YS02001788           JUNCTION     0.23     0.62     6.60     0  02:23        0.62
  YS02001790           JUNCTION     0.27     0.72     6.36     0  02:31        0.71
  YS02001791           JUNCTION     0.17     0.44     5.91     0  02:26        0.43
  YS02001793           JUNCTION     0.09     0.29     5.12     0  02:20        0.26
  YS02001882           JUNCTION     0.45     1.72     8.43     0  02:16        1.64
  YS02001884           JUNCTION     0.54     1.79     8.41     0  02:16        1.74
  YS02001887           JUNCTION     0.62     1.83     8.36     0  02:16        1.82
  YS02001890           JUNCTION     0.65     1.81     8.32     0  02:16        1.81
  YS02001895           JUNCTION     0.42     1.57     8.31     0  02:18        1.56
  YS02001898           JUNCTION     0.43     1.57     8.30     0  02:34        1.56
  YS02001901           JUNCTION     0.54     1.68     8.29     0  02:34        1.67
  YS02001904           JUNCTION     0.52     1.64     8.27     0  02:34        1.63
  YS02001907           JUNCTION     0.83     1.96     8.25     0  02:17        1.96
  YS02001910           JUNCTION     0.64     1.99     8.50     0  02:18        1.93
  YS02001915           JUNCTION     0.46     1.93     8.65     0  02:18        1.90
  YS02001918           JUNCTION     0.27     1.81     8.88     0  02:18        1.81
  YS02001920           JUNCTION     0.35     2.14     9.15     0  02:18        1.83
  YS02001923           JUNCTION     0.21     2.03     9.29     0  02:18        1.55
  YS02001926           JUNCTION     0.24     1.90     9.35     0  02:18        1.38
  YS02001929           JUNCTION     0.14     1.78     9.47     0  02:18        1.17
  YS02006553           JUNCTION     0.83     2.01     8.30     0  02:18        1.97
  YS02006556           JUNCTION     0.80     2.03     8.35     0  02:18        1.95
  YS02006558           JUNCTION     0.85     2.10     8.37     0  02:18        2.00
  YS02006561           JUNCTION     0.23     1.19     7.85     0  02:18        0.89
  YS02163301           JUNCTION     0.66     1.93     8.45     0  02:20        1.90
  YS02163601           JUNCTION     0.74     2.08     8.48     0  02:20        2.01
  YS02164001           JUNCTION     0.66     2.00     8.45     0  02:20        1.93
  CC-1                 OUTFALL      0.00     0.00     0.00     0  00:00        0.00
  CC-2                 OUTFALL      0.00     0.00     0.00     0  00:00        0.00
  JK-1                 OUTFALL      0.00     0.00     0.00     0  00:00        0.00
  JK-2                 OUTFALL      0.00     0.00     0.00     0  00:00        0.00
  WSC                  OUTFALL      0.14     0.29     0.96     0  02:51        0.29
  CC-storage           STORAGE      0.66     1.30     6.80     0  02:51        1.30
  JK-storage           STORAGE      1.72     4.21     5.01     0  02:19        4.13
  
  
  *******************
  Node Inflow Summary
  *******************
  
  -------------------------------------------------------------------------------------------------
                                  Maximum  Maximum                  Lateral       Total        Flow
                                  Lateral    Total  Time of Max      Inflow      Inflow     Balance
                                   Inflow   Inflow   Occurrence      Volume      Volume       Error
  Node                 Type           LPS      LPS  days hr:min    10^6 ltr    10^6 ltr     Percent
  -------------------------------------------------------------------------------------------------
  WS02003060           JUNCTION     16.53   518.67     0  02:49       0.476        2.78       0.075
  WS02003066           JUNCTION      0.00   502.45     0  02:48           0        2.31       0.052
  WS02003067           JUNCTION      0.00   502.11     0  02:48           0        2.31       0.175
  WS02003069           JUNCTION      0.32   519.95     0  02:49     0.00922        2.79       0.126
  WS02003072           JUNCTION      0.00   518.39     0  02:50           0        2.79       0.226
  WS02003073           JUNCTION      1.82   519.02     0  02:50      0.0524        2.83       0.179
  WS02004401           JUNCTION      0.00   533.65     0  02:43           0        2.41       0.415
  WS02004402           JUNCTION      0.00   526.86     0  02:45           0         2.4       0.423
  WS02004403           JUNCTION      0.00   523.40     0  02:45           0        2.39       0.416
  WS02004404           JUNCTION      0.16   519.68     0  02:46     0.00467        2.38       0.347
  WS02004405           JUNCTION      0.04   521.06     0  02:46      0.0011        2.38       0.518
  WS02004406           JUNCTION      0.00   521.21     0  02:46           0        2.37       0.868
  WS02004407           JUNCTION      0.00   518.81     0  02:46           0        2.34       0.042
  WS02004409           JUNCTION      0.00   517.72     0  02:46           0        2.34       0.097
  WS02004410           JUNCTION      0.00   515.16     0  02:47           0        2.34       0.169
  WS02004411           JUNCTION      0.00   507.97     0  02:47           0        2.34       0.222
  WS02004412           JUNCTION      0.00   507.16     0  02:47           0        2.33       0.302
  WS02004413           JUNCTION      0.00   504.08     0  02:48           0        2.33       0.550
  WS02006109           JUNCTION      1.23   556.27     0  02:41      0.0354        2.46       0.443
  WS02006110           JUNCTION      0.00   559.00     0  02:42           0        2.45       0.254
  WS02006111           JUNCTION      0.00   559.52     0  02:43           0        2.44       0.039
  WS02006112           JUNCTION      0.00   542.66     0  02:35           0        2.44       0.712
  WS02006113           JUNCTION      0.00   585.93     0  02:42           0        2.44       0.054
  WS02006115           JUNCTION      0.00   553.82     0  02:42           0        2.42       0.259
  WS02006116           JUNCTION      0.00   539.56     0  02:43           0        2.42       0.223
  WS02006228           JUNCTION      0.00   554.10     0  02:41           0        2.43       0.193
  WS02006229           JUNCTION      0.00   554.14     0  02:41           0        2.43       0.137
  WS02006230           JUNCTION     10.28   598.34     0  02:41       0.296        2.44       0.197
  WS02006231           JUNCTION      0.00   561.64     0  02:41           0        2.14       0.054
  WS02006232           JUNCTION      0.00   560.92     0  02:41           0        2.14       0.200
  WS02006234           JUNCTION      0.00   560.13     0  02:41           0        2.14      -0.185
  WS02006235           JUNCTION      0.00   562.57     0  02:41           0        2.16       0.251
  WS02006238           JUNCTION      0.00   427.07     0  02:40           0        1.94      -0.126
  WS02006239           JUNCTION      0.00   426.07     0  02:40           0        1.93      -0.248
  WS02006240           JUNCTION      0.00   423.15     0  02:40           0        1.92      -0.019
  WS02006242           JUNCTION      0.00   423.47     0  02:40           0        1.92      -0.048
  WS02006243           JUNCTION      0.00   424.00     0  02:40           0        1.92      -0.164
  WS02006245           JUNCTION      0.00   424.77     0  02:40           0        1.93       0.742
  WS02006247           JUNCTION      0.00   425.11     0  02:40           0        1.93      -0.020
  WS02006248           JUNCTION      0.00   426.14     0  02:40           0        1.92      -0.429
  WS02006249           JUNCTION      0.00   459.02     0  00:00           0        1.97       1.124
  WS02006251           JUNCTION      0.08   405.62     0  02:32     0.00222        1.97      -0.003
  WS02006252           JUNCTION      0.00   400.00     0  00:00           0        1.95      -0.979
  WS02006256           JUNCTION      0.00   300.00     0  00:00           0       0.295      -1.465
  WSF200               JUNCTION      0.00   502.46     0  02:48           0        2.31       0.018
  YS02001580           JUNCTION      0.00    76.11     0  02:12           0     0.00409       0.716
  YS02001583           JUNCTION      0.00   125.62     0  02:12           0      0.0155      -3.839
  YS02001586           JUNCTION    692.44   692.45     0  02:26        1.53        1.54       0.054
  YS02001590           JUNCTION      0.00   317.99     0  02:42           0        1.26      -0.042
  YS02001593           JUNCTION      0.00   318.08     0  02:42           0        1.26       0.001
  YS02001596           JUNCTION      0.00   318.02     0  02:31           0        1.26      -0.007
  YS02001600           JUNCTION      0.00   318.14     0  02:42           0        1.26       0.010
  YS02001601           JUNCTION   1215.65  1533.15     0  02:26        2.13        3.39       0.006
  YS02001602           JUNCTION      0.00   496.65     0  02:47           0        2.23       0.014
  YS02001605           JUNCTION      0.00   496.75     0  02:47           0        2.14       0.022
  YS02001607           JUNCTION      0.00   496.99     0  02:47           0        2.14       0.093
  YS02001610           JUNCTION      0.00   656.82     0  02:26           0        2.29       0.082
  YS02001613           JUNCTION      0.00   502.17     0  02:11           0        1.92       0.080
  YS02001616           JUNCTION      0.00   502.23     0  02:12           0        1.92       0.021
  YS02001619           JUNCTION   1232.66  1232.66     0  02:26        2.45        4.22      -0.003
  YS02001622           JUNCTION      0.00   935.21     0  02:17           0        4.07      -0.002
  YS02001625           JUNCTION      0.00  1280.18     0  02:26           0         4.2       0.203
  YS02001629           JUNCTION      0.00   935.22     0  02:17           0        3.52       0.028
  YS02001633           JUNCTION    914.59  1380.65     0  02:17        1.56        4.94       0.073
  YS02001641           JUNCTION      0.00  1380.23     0  02:17           0         4.8       0.058
  YS02001644           JUNCTION    818.69  1780.83     0  02:17        1.35        6.14       0.053
  YS02001647           JUNCTION      0.00  1780.73     0  02:17           0        5.97       0.007
  YS02001649           JUNCTION      0.00  2068.06     0  02:18           0        7.19       0.004
  YS02001652           JUNCTION      0.00   823.17     0  02:25           0        1.23      -0.077
  YS02001655           JUNCTION      0.15   823.08     0  02:25     0.00443        1.23       0.012
  YS02001658           JUNCTION      0.00   822.59     0  02:25           0        1.22      -0.002
  YS02001661           JUNCTION      0.00   818.87     0  02:25           0        1.22       0.020
  YS02001664           JUNCTION    807.41   807.41     0  02:25        1.22        1.22      -0.005
  YS02001745           JUNCTION    508.98   508.98     0  02:25       0.745       0.745       0.155
  YS02001748           JUNCTION      0.04   570.14     0  02:22      0.0013       0.746      -0.209
  YS02001751           JUNCTION      0.01   522.87     0  02:25    0.000317       0.751       0.084
  YS02001754           JUNCTION      0.26   523.36     0  02:25     0.00749       0.759      -0.152
  YS02001757           JUNCTION      0.00  3510.58     0  02:25           0        10.5       0.062
  YS02001759           JUNCTION    707.85  1426.06     0  02:24        1.03        2.55      -0.005
  YS02001762           JUNCTION      0.00   811.27     0  02:28           0        1.53       0.003
  YS02001765           JUNCTION      0.00   810.86     0  02:28           0        1.53       0.006
  YS02001767           JUNCTION      0.54   810.76     0  02:28      0.0154        1.53       0.006
  YS02001770           JUNCTION    997.87   997.87     0  02:25        1.57        1.61      -0.014
  YS02001774           JUNCTION      0.00   291.36     0  02:25           0       0.119       0.924
  YS02001779           JUNCTION      0.01   291.47     0  02:25    0.000144      0.0779      -0.157
  YS02001783           JUNCTION      0.00  1163.75     0  02:24           0        3.88       0.007
  YS02001784           JUNCTION      1.06  1164.84     0  02:24      0.0305        3.91       0.012
  YS02001786           JUNCTION      0.06  1164.92     0  02:24     0.00162        3.91       0.017
  YS02001788           JUNCTION      0.07  1164.93     0  02:24     0.00204        3.91       0.008
  YS02001790           JUNCTION      0.15  1175.87     0  02:23     0.00446        3.92       0.032
  YS02001791           JUNCTION      0.00  1275.88     0  02:31           0        3.92      -0.025
  YS02001793           JUNCTION      0.00  1234.69     0  02:26           0        3.92       0.005
  YS02001882           JUNCTION      0.00    36.44     0  02:15           0      0.0129       4.973
  YS02001884           JUNCTION      0.00    56.06     0  02:14           0      0.0488       5.317
  YS02001887           JUNCTION    758.37   758.78     0  02:25        1.08        1.11       0.391
  YS02001890           JUNCTION      0.00   759.07     0  02:25           0        1.07       0.467
  YS02001895           JUNCTION      0.00   516.34     0  02:28           0        1.01       0.149
  YS02001898           JUNCTION      0.00   516.34     0  02:28           0        1.01       0.026
  YS02001901           JUNCTION      0.00   516.34     0  02:28           0        1.01       0.316
  YS02001904           JUNCTION      0.00   516.34     0  02:28           0        1.01       0.272
  YS02001907           JUNCTION      0.00  1855.70     0  02:25           0        3.37       0.504
  YS02001910           JUNCTION      0.00  1339.79     0  02:25           0        2.36       0.293
  YS02001915           JUNCTION    882.84  1339.69     0  02:25         1.5        2.39       0.066
  YS02001918           JUNCTION      0.00   457.97     0  02:25           0       0.917       0.008
  YS02001920           JUNCTION      2.87   457.72     0  02:25      0.0827       0.904       0.114
  YS02001923           JUNCTION      0.04   465.51     0  02:25     0.00109       0.809      -0.021
  YS02001926           JUNCTION      0.05   463.74     0  02:25      0.0015       0.795      -0.008
  YS02001929           JUNCTION    432.35   432.35     0  02:26       0.787       0.787      -0.038
  YS02006553           JUNCTION      0.00   803.08     0  02:37           0        2.35       0.492
  YS02006556           JUNCTION      0.00   802.80     0  02:37           0        2.36       0.327
  YS02006558           JUNCTION   1024.74  1163.86     0  02:24        1.58        3.91       0.087
  YS02006561           JUNCTION      0.00  1163.81     0  02:24           0        3.88      -0.000
  YS02163301           JUNCTION      0.00   935.18     0  02:17           0        3.52       0.046
  YS02163601           JUNCTION      0.11  1380.78     0  02:17     0.00317        4.79       0.106
  YS02164001           JUNCTION      0.00  1380.99     0  02:17           0        4.79       0.048
  CC-1                 OUTFALL       0.00   683.00     0  00:00           0        4.75       0.000
  CC-2                 OUTFALL       0.00   683.00     0  00:00           0        4.66       0.000
  JK-1                 OUTFALL       0.00  1000.00     0  00:00           0       0.119       0.000
  JK-2                 OUTFALL       0.00  1000.00     0  00:00           0        3.61       0.000
  WSC                  OUTFALL       0.00   517.43     0  02:51           0        2.83       0.000
  CC-storage           STORAGE       0.00  3510.02     0  02:25           0        12.7      -0.238
  JK-storage           STORAGE       0.00  1260.89     0  02:24           0        4.07      -0.394
  
  
  **********************
  Node Surcharge Summary
  **********************
  
  Surcharging occurs when water rises above the top of the highest conduit.
  ---------------------------------------------------------------------
                                               Max. Height   Min. Depth
                                   Hours       Above Crown    Below Rim
  Node                 Type      Surcharged         Meters       Meters
  ---------------------------------------------------------------------
  WS02006109           JUNCTION        0.74          1.007        0.813
  WS02006110           JUNCTION        0.06          0.286        1.564
  WS02006112           JUNCTION        0.05          0.032        1.648
  WS02006228           JUNCTION        0.73          1.166        1.034
  WS02006229           JUNCTION        0.75          1.001        1.449
  WS02006230           JUNCTION        0.07          0.279        1.291
  WS02006231           JUNCTION        0.10          0.423        1.107
  WS02006232           JUNCTION        0.78          0.548        0.932
  WS02006234           JUNCTION        0.19          0.485        0.755
  WS02006235           JUNCTION        0.72          0.588        0.702
  WS02006238           JUNCTION        0.75          0.619        0.811
  WS02006239           JUNCTION        0.73          0.583        0.707
  WS02006240           JUNCTION        0.73          0.569        0.821
  WS02006242           JUNCTION        0.74          0.668        0.152
  WS02006243           JUNCTION        0.73          0.624        0.146
  WS02006245           JUNCTION        0.72          0.597        0.253
  WS02006247           JUNCTION        0.72          0.562        0.198
  WS02006248           JUNCTION        0.71          0.380        0.000
  WS02006249           JUNCTION        0.71          0.390        0.000
  WS02006251           JUNCTION        0.11          0.407        0.773
  WS02006252           JUNCTION        0.93          1.100        0.000
  WS02006256           JUNCTION        5.14          2.050        0.000
  YS02001580           JUNCTION        0.56          0.450        0.000
  YS02001583           JUNCTION        0.56          0.500        0.000
  YS02001586           JUNCTION        0.66          0.510        0.000
  YS02001590           JUNCTION        0.74          0.750        0.000
  YS02001593           JUNCTION        0.74          0.697        0.143
  YS02001596           JUNCTION        0.85          0.947        0.123
  YS02001600           JUNCTION        1.01          1.190        0.000
  YS02001601           JUNCTION        1.36          1.440        0.000
  YS02001602           JUNCTION        1.24          1.270        0.000
  YS02001605           JUNCTION        1.19          1.180        0.000
  YS02001607           JUNCTION        0.68          0.654        0.026
  YS02001610           JUNCTION        0.70          0.680        0.000
  YS02001613           JUNCTION        0.67          0.668        0.032
  YS02001616           JUNCTION        0.63          0.601        0.009
  YS02001619           JUNCTION        0.62          0.603        0.007
  YS02001622           JUNCTION        0.61          0.570        0.050
  YS02001625           JUNCTION        0.80          0.780        0.000
  YS02001629           JUNCTION        0.53          0.470        0.000
  YS02001633           JUNCTION        0.81          1.028        0.032
  YS02001641           JUNCTION        0.69          0.969        0.131
  YS02001644           JUNCTION        0.65          0.920        0.000
  YS02001647           JUNCTION        0.42          0.800        0.100
  YS02001649           JUNCTION        0.48          1.050        0.000
  YS02001652           JUNCTION        0.34          1.130        0.000
  YS02001655           JUNCTION        0.24          1.200        0.000
  YS02001658           JUNCTION        0.14          0.685        0.615
  YS02001748           JUNCTION        0.06          1.125        0.065
  YS02001751           JUNCTION        0.17          1.091        0.109
  YS02001754           JUNCTION        0.25          1.004        0.146
  YS02001757           JUNCTION        0.50          1.114        0.096
  YS02001759           JUNCTION        0.42          1.121        0.089
  YS02001762           JUNCTION        0.40          1.059        0.091
  YS02001765           JUNCTION        0.37          1.044        0.056
  YS02001767           JUNCTION        0.35          1.008        0.022
  YS02001770           JUNCTION        0.33          0.920        0.000
  YS02001774           JUNCTION        0.39          1.018        0.032
  YS02001779           JUNCTION        0.26          0.680        0.000
  YS02001783           JUNCTION        0.50          0.611        0.989
  YS02001784           JUNCTION        0.48          0.408        1.082
  YS02001786           JUNCTION        0.37          0.114        1.316
  YS02001882           JUNCTION        0.44          0.719        0.111
  YS02001884           JUNCTION        0.45          0.728        0.142
  YS02001887           JUNCTION        0.49          0.777        0.173
  YS02001890           JUNCTION        0.50          0.760        0.000
  YS02001895           JUNCTION        0.43          0.567        0.183
  YS02001898           JUNCTION        0.42          0.539        0.201
  YS02001901           JUNCTION        0.48          0.681        0.189
  YS02001904           JUNCTION        0.47          0.638        0.212
  YS02001907           JUNCTION        0.74          0.950        0.000
  YS02001910           JUNCTION        0.53          0.990        0.110
  YS02001915           JUNCTION        0.44          0.930        0.070
  YS02001918           JUNCTION        0.36          0.810        0.000
  YS02001920           JUNCTION        0.37          1.140        0.000
  YS02001923           JUNCTION        0.05          0.820        0.000
  YS02001926           JUNCTION        0.11          0.900        0.000
  YS02001929           JUNCTION        0.01          0.780        0.000
  YS02006553           JUNCTION        0.76          1.014        0.176
  YS02006556           JUNCTION        0.63          0.995        0.355
  YS02006558           JUNCTION        0.61          1.000        0.400
  YS02006561           JUNCTION        0.32          0.395        0.755
  YS02163301           JUNCTION        0.79          0.934        0.096
  YS02163601           JUNCTION        0.84          1.080        0.000
  YS02164001           JUNCTION        0.71          0.995        0.105
  
  
  *********************
  Node Flooding Summary
  *********************
  
  Flooding refers to all water that overflows a node, whether it ponds or not.
  --------------------------------------------------------------------------
                                                             Total   Maximum
                                 Maximum   Time of Max       Flood    Ponded
                        Hours       Rate    Occurrence      Volume     Depth
  Node                 Flooded       LPS   days hr:min    10^6 ltr    Meters
  --------------------------------------------------------------------------
  WS02006248              0.01      9.49      0  02:39       0.000     0.000
  WS02006249              0.10     91.90      0  02:33       0.024     0.000
  WS02006252              0.01    245.63      0  00:00       0.000     0.000
  WS02006256              0.27    293.19      0  00:00       0.082     0.000
  YS02001580              0.01     41.27      0  02:13       0.000     0.000
  YS02001583              0.01     98.12      0  02:13       0.000     0.000
  YS02001586              0.43    374.92      0  02:26       0.272     0.000
  YS02001590              0.01      2.26      0  02:13       0.000     0.000
  YS02001600              0.01      0.89      0  02:13       0.000     0.000
  YS02001601              0.59   1135.35      0  02:26       1.162     0.000
  YS02001602              0.43     61.92      0  02:35       0.088     0.000
  YS02001605              0.01      1.13      0  02:12       0.000     0.000
  YS02001610              0.38    656.81      0  02:26       0.513     0.000
  YS02001625              0.33   1280.17      0  02:26       0.805     0.000
  YS02001629              0.09     99.12      0  02:23       0.019     0.000
  YS02001644              0.13    607.60      0  02:25       0.161     0.000
  YS02001649              0.01      7.38      0  02:22       0.000     0.000
  YS02001652              0.01     66.89      0  02:20       0.000     0.000
  YS02001655              0.01    252.45      0  02:20       0.000     0.000
  YS02001770              0.01    100.35      0  02:19       0.000     0.000
  YS02001779              0.11    291.46      0  02:25       0.061     0.000
  YS02001890              0.15    243.40      0  02:25       0.060     0.000
  YS02001907              0.31   1705.29      0  02:25       1.011     0.000
  YS02001918              0.01     94.56      0  02:18       0.000     0.000
  YS02001920              0.01     11.73      0  02:18       0.000     0.000
  YS02001923              0.01    155.74      0  02:18       0.000     0.000
  YS02001926              0.01    279.00      0  02:18       0.000     0.000
  YS02001929              0.01    268.36      0  02:18       0.000     0.000
  YS02163601              0.01      3.31      0  02:20       0.000     0.000
  
  
  **********************
  Storage Volume Summary
  **********************
  
  ------------------------------------------------------------------------------------------------
                         Average    Avg   Evap  Exfil     Maximum    Max    Time of Max    Maximum
                          Volume   Pcnt   Pcnt   Pcnt      Volume   Pcnt     Occurrence    Outflow
  Storage Unit           1000 m³   Full   Loss   Loss     1000 m³   Full    days hr:min        LPS
  ------------------------------------------------------------------------------------------------
  CC-storage               1.848   28.8    0.0    0.0       3.617   56.4       0  02:51    1783.53
  JK-storage               0.086   29.7    0.0    0.0       0.211   72.5       0  02:19    2300.00
  
  
  ***********************
  Outfall Loading Summary
  ***********************
  
  -----------------------------------------------------------
                         Flow       Avg       Max       Total
                         Freq      Flow      Flow      Volume
  Outfall Node           Pcnt       LPS       LPS    10^6 ltr
  -----------------------------------------------------------
  CC-1                  60.98    683.00    683.00       4.754
  CC-2                  59.36    683.00    683.00       4.661
  JK-1                   0.88   1000.00   1000.00       0.119
  JK-2                  31.49   1000.00   1000.00       3.614
  WSC                   99.95    154.68    517.43       2.828
  -----------------------------------------------------------
  System                50.53   3520.68   3366.23      15.976
  
  
  ********************
  Link Flow Summary
  ********************
  
  -----------------------------------------------------------------------------
                                 Maximum  Time of Max   Maximum    Max/    Max/
                                  |Flow|   Occurrence   |Veloc|    Full    Full
  Link                 Type          LPS  days hr:min     m/sec    Flow   Depth
  -----------------------------------------------------------------------------
  1                    CONDUIT    517.43     0  02:51      2.77    0.18    0.29
  WS02003060WS02003069 CONDUIT    519.63     0  02:49      1.62    0.20    0.33
  WS02003066WSF200     CONDUIT    502.46     0  02:48      2.81    0.08    0.22
  WS02003067WS02003066 CONDUIT    502.45     0  02:48      1.16    0.16    0.41
  WS02003069WS02003072 CONDUIT    518.39     0  02:50      1.34    0.25    0.37
  WS02003072WS02003073 CONDUIT    517.20     0  02:50      1.40    1.12    0.36
  WS02004401WS02004402 CONDUIT    526.86     0  02:45      0.97    0.63    0.85
  WS02004402WS02004403 CONDUIT    523.40     0  02:45      0.98    0.75    0.87
  WS02004403WS02004404 CONDUIT    519.52     0  02:46      0.92    0.38    0.91
  WS02004404WS02004405 CONDUIT    521.02     0  02:46      1.08    5.10    0.95
  WS02004405WS02004406 CONDUIT    521.21     0  02:46      0.99    1.03    0.94
  WS02004406WS02004407 CONDUIT    518.81     0  02:46      1.02    0.23    0.62
  WS02004407WS02004409 CONDUIT    517.72     0  02:46      1.47    0.18    0.46
  WS02004409WS02004410 CONDUIT    515.16     0  02:47      0.96    0.67    0.65
  WS02004410WS02004411 CONDUIT    507.97     0  02:47      0.93    0.69    0.66
  WS02004411WS02004412 CONDUIT    507.16     0  02:47      0.90    0.72    0.67
  WS02004412WS02004413 CONDUIT    504.08     0  02:48      0.79    0.34    0.76
  WS02004413WS02003067 CONDUIT    502.11     0  02:48      1.07    0.22    0.58
  WS02006109WS02006110 CONDUIT    559.00     0  02:42      1.11    1.07    1.00
  WS02006110WS02006113 CONDUIT    585.93     0  02:42      1.42    0.53    0.78
  WS02006111WS02006112 CONDUIT    542.66     0  02:35      1.83    0.26    0.67
  WS02006112WS02006115 CONDUIT    553.82     0  02:42      0.78    0.33    0.86
  WS02006113WS02006111 CONDUIT    559.52     0  02:43      2.48    0.67    0.46
  WS02006115WS02006116 CONDUIT    539.56     0  02:43      0.97    0.69    0.74
  WS02006116WS02004401 CONDUIT    533.65     0  02:43      0.97    0.74    0.82
  WS02006228WS02006109 CONDUIT    555.04     0  02:41      1.10    2.43    1.00
  WS02006229WS02006228 CONDUIT    554.10     0  02:41      1.14    1.84    1.00
  WS02006230WS02006229 CONDUIT    554.14     0  02:41      1.44   12.33    1.00
  WS02006231WS02006230 CONDUIT    588.07     0  02:41      1.60    8.92    1.00
  WS02006232WS02006231 CONDUIT    561.64     0  02:41      1.46    1.18    1.00
  WS02006234WS02006232 CONDUIT    560.92     0  02:41      1.46    1.13    1.00
  WS02006235WS02006234 CONDUIT    560.13     0  02:41      1.46    5.91    1.00
  WS02006238WS02006235 CONDUIT    427.05     0  02:40      1.45    0.95    1.00
  WS02006239WS02006238 CONDUIT    427.07     0  02:40      1.11    1.37    1.00
  WS02006240WS02006239 CONDUIT    426.07     0  02:40      1.24    1.34    1.00
  WS02006242WS02006240 CONDUIT    423.15     0  02:40      1.13    1.68    1.00
  WS02006243WS02006242 CONDUIT    423.47     0  02:40      1.40    0.90    1.00
  WS02006245WS02006243 CONDUIT    424.00     0  02:40      1.45    1.25    1.00
  WS02006247WS02006245 CONDUIT    424.77     0  02:40      1.43    3.37    1.00
  WS02006248WS02006247 CONDUIT    425.11     0  02:40      1.44    0.93    1.00
  WS02006249WS02006248 CONDUIT    426.14     0  02:40      1.36    2.33    1.00
  WS02006251WS02006249 CONDUIT    459.02     0  00:00      1.99    1.32    1.00
  WS02006252WS02006251 CONDUIT    405.54     0  02:32     24.61    1.49    1.00
  WS02006256WS02006235 CONDUIT    288.91     0  00:00      4.23    3.06    1.00
  WSF200WS02003060     CONDUIT    502.15     0  02:49      2.03    0.11    0.27
  YS02001580YS02001583 CONDUIT     76.11     0  02:12      0.54    0.29    1.00
  YS02001583YS02001586 CONDUIT    125.62     0  02:12      0.53    0.19    1.00
  YS02001586YS02001590 CONDUIT    317.99     0  02:42      1.26    0.56    1.00
  YS02001590YS02001593 CONDUIT    318.08     0  02:42      1.12    2.00    1.00
  YS02001593YS02001596 CONDUIT    318.02     0  02:31      1.76    0.50    1.00
  YS02001596YS02001600 CONDUIT    318.14     0  02:42      1.26    0.62    1.00
  YS02001600YS02001601 CONDUIT    318.30     0  02:42      1.13    0.55    1.00
  YS02001601YS02001602 CONDUIT    496.65     0  02:47      1.76    1.79    1.00
  YS02001602YS02001605 CONDUIT    496.75     0  02:47      1.76   10.51    1.00
  YS02001605YS02001607 CONDUIT    496.99     0  02:47      1.76    2.73    1.00
  YS02001607YS02001610 CONDUIT    502.37     0  02:11      0.64    0.48    1.00
  YS02001610YS02001613 CONDUIT    502.17     0  02:11      0.64    0.58    1.00
  YS02001613YS02001616 CONDUIT    502.23     0  02:12      0.64    0.43    1.00
  YS02001616YS02001619 CONDUIT    499.31     0  02:47      0.67    0.87    1.00
  YS02001619YS02001622 CONDUIT    935.21     0  02:17      1.19    1.38    1.00
  YS02001622YS02001625 CONDUIT    935.26     0  02:17      1.19    0.50    1.00
  YS02001625YS02001629 CONDUIT    935.22     0  02:17      1.19    0.44    1.00
  YS02001629YS02163301 CONDUIT    935.18     0  02:17      1.19    1.15    1.00
  YS02001633YS02163601 CONDUIT   1380.67     0  02:17      1.76    1.45    1.00
  YS02001641YS02001644 CONDUIT   1380.23     0  02:17      1.76    4.46    1.00
  YS02001644YS02001647 CONDUIT   1780.73     0  02:17      2.27    1.05    1.00
  YS02001647YS02001649 CONDUIT   1798.22     0  02:18      2.35    0.95    1.00
  YS02001649YS02001757 CONDUIT   2068.20     0  02:18      2.63    1.26    1.00
  YS02001652YS02001649 CONDUIT    823.25     0  02:25      1.05    0.41    1.00
  YS02001655YS02001652 CONDUIT    823.17     0  02:25      1.25    0.40    1.00
  YS02001658YS02001655 CONDUIT    822.93     0  02:25      1.85    0.35    1.00
  YS02001661YS02001658 CONDUIT    822.59     0  02:25      2.29    0.32    0.98
  YS02001664YS02001661 CONDUIT    818.87     0  02:25      2.27    0.26    0.71
  YS02001745YS02001748 CONDUIT    570.10     0  02:22      2.13    0.22    0.85
  YS02001748YS02001751 CONDUIT    522.86     0  02:25      1.67    0.26    1.00
  YS02001751YS02001754 CONDUIT    523.10     0  02:25      1.40    0.25    1.00
  YS02001754YS02001757 CONDUIT    523.53     0  02:25      0.67    0.21    1.00
  YS02001757CaochengTiaoxuchi CONDUIT   3510.02     0  02:25      4.73    1.52    1.00
  YS02001759YS02001757 CONDUIT   1426.05     0  02:24      1.82    1.01    1.00
  YS02001762YS02001759 CONDUIT    811.58     0  02:28      1.03    0.93    1.00
  YS02001765YS02001762 CONDUIT    811.27     0  02:28      1.03    0.76    1.00
  YS02001767YS02001765 CONDUIT    810.86     0  02:28      1.03    1.02    1.00
  YS02001770YS02001767 CONDUIT    810.22     0  02:28      1.03    3.21    1.00
  YS02001774YS02001770 CONDUIT    291.36     0  02:25      0.37    0.19    1.00
  YS02001779YS02001774 CONDUIT    291.47     0  02:25      0.37    0.15    1.00
  YS02001783YS02001784 CONDUIT   1163.78     0  02:24      2.32    1.60    1.00
  YS02001784YS02001785 CONDUIT   1164.86     0  02:24      2.32    2.71    1.00
  YS02001786YS02001788 CONDUIT   1164.86     0  02:24      2.48    2.24    0.89
  YS02001788YS02001790 CONDUIT   1175.71     0  02:23      2.71    0.87    0.83
  YS02001790YS02001791 CONDUIT   1275.88     0  02:31      3.42    1.39    0.70
  YS02001791YS02001793 CONDUIT   1234.69     0  02:26      6.54    0.53    0.44
  YS02001793JiankangQianchi CONDUIT   1260.89     0  02:24      2.50    0.10    0.64
  YS02001882YS02001884 CONDUIT     36.44     0  02:15      0.11    0.04    1.00
  YS02001884YS02001887 CONDUIT     56.06     0  02:14      0.08    0.07    1.00
  YS02001887YS02001890 CONDUIT    759.07     0  02:25      0.97    1.30    1.00
  YS02001890YS02001895 CONDUIT    516.34     0  02:28      0.66    0.24    1.00
  YS02001895YS02001898 CONDUIT    516.34     0  02:28      0.66    0.90    1.00
  YS02001898YS02001901 CONDUIT    516.34     0  02:28      0.66    0.33    1.00
  YS02001901YS02001904 CONDUIT    516.34     0  02:28      0.66    0.80    1.00
  YS02001904YS02001907 CONDUIT    516.34     0  02:28      0.66    0.18    1.00
  YS02001907YS02006553 CONDUIT    803.08     0  02:37      0.89    0.94    1.00
  YS02001910YS02001907 CONDUIT   1339.86     0  02:25      1.71    0.76    1.00
  YS02001915YS02001910 CONDUIT   1339.79     0  02:25      1.71    0.67    1.00
  YS02001918YS02001915 CONDUIT    458.27     0  02:25      0.58    0.25    1.00
  YS02001920YS02001918 CONDUIT    457.97     0  02:25      0.67    0.44    1.00
  YS02001923YS02001920 CONDUIT    454.85     0  02:25      0.69    0.20    1.00
  YS02001926YS02001923 CONDUIT    465.47     0  02:25      0.94    0.66    1.00
  YS02001929YS02001926 CONDUIT    463.69     0  02:25      1.08    0.22    1.00
  YS02006553YS02006556 CONDUIT    802.80     0  02:37      1.02    0.69    1.00
  YS02006556YS02006558 CONDUIT    803.16     0  02:37      1.02    0.63    1.00
  YS02006558YS02006561 CONDUIT   1163.81     0  02:24      4.12    2.57    1.00
  YS02006561YS02001783 CONDUIT   1163.75     0  02:24      2.32    0.60    1.00
  YS02163301YS02001633 CONDUIT    935.18     0  02:17      1.19    0.88    1.00
  YS02163601YS02164001 CONDUIT   1380.99     0  02:17      1.76    1.22    1.00
  YS02164001YS02001641 CONDUIT   1380.23     0  02:17      1.76    1.88    1.00
  CC-R1                PUMP       683.00     0  00:00              1.00
  CC-R2                PUMP       683.00     0  00:00              1.00
  CC-S1                PUMP       200.00     0  00:00              1.00
  CC-S2                PUMP       200.00     0  00:00              1.00
  JK-R1                PUMP      1000.00     0  00:00              1.00
  JK-R2                PUMP      1000.00     0  00:00              1.00
  JK-S                 PUMP       300.00     0  00:00              1.00
  
  
  ***************************
  Flow Classification Summary
  ***************************
  
  -------------------------------------------------------------------------------------
                      Adjusted    ---------- Fraction of Time in Flow Class ---------- 
                       /Actual         Up    Down  Sub   Sup   Up    Down  Norm  Inlet 
  Conduit               Length    Dry  Dry   Dry   Crit  Crit  Crit  Crit  Ltd   Ctrl  
  -------------------------------------------------------------------------------------
  1                       1.00   0.00  0.00  0.00  0.00  1.00  0.00  0.00  0.57  0.00
  WS02003060WS02003069    1.00   0.00  0.00  0.00  0.99  0.01  0.00  0.00  0.82  0.00
  WS02003066WSF200        1.00   0.09  0.00  0.00  0.00  0.91  0.00  0.00  0.89  0.00
  WS02003067WS02003066    1.00   0.08  0.01  0.00  0.91  0.00  0.00  0.00  0.00  0.00
  WS02003069WS02003072    1.00   0.00  0.00  0.00  0.99  0.01  0.00  0.00  0.88  0.00
  WS02003072WS02003073    1.00   0.00  0.00  0.00  0.00  0.00  0.00  1.00  0.00  0.00
  WS02004401WS02004402    1.00   0.02  0.00  0.00  0.98  0.00  0.00  0.00  0.00  0.00
  WS02004402WS02004403    1.00   0.02  0.00  0.00  0.97  0.00  0.00  0.00  0.00  0.00
  WS02004403WS02004404    1.00   0.00  0.03  0.00  0.97  0.00  0.00  0.00  0.00  0.00
  WS02004404WS02004405    1.00   0.00  0.00  0.00  1.00  0.00  0.00  0.00  0.00  0.00
  WS02004405WS02004406    1.00   0.00  0.00  0.00  1.00  0.00  0.00  0.00  0.00  0.00
  WS02004406WS02004407    1.00   0.00  0.04  0.00  0.95  0.00  0.00  0.00  0.00  0.00
  WS02004407WS02004409    1.00   0.05  0.00  0.00  0.95  0.01  0.00  0.00  0.95  0.00
  WS02004409WS02004410    1.00   0.05  0.00  0.00  0.95  0.00  0.00  0.00  0.01  0.00
  WS02004410WS02004411    1.00   0.05  0.00  0.00  0.95  0.00  0.00  0.00  0.00  0.00
  WS02004411WS02004412    1.00   0.05  0.00  0.00  0.95  0.00  0.00  0.00  0.00  0.00
  WS02004412WS02004413    1.00   0.05  0.00  0.00  0.95  0.00  0.00  0.00  0.01  0.00
  WS02004413WS02003067    1.00   0.05  0.02  0.00  0.00  0.00  0.92  0.00  0.00  0.00
  WS02006109WS02006110    1.00   0.00  0.01  0.00  0.98  0.00  0.01  0.00  0.00  0.00
  WS02006110WS02006113    1.00   0.01  0.01  0.00  0.98  0.00  0.00  0.00  0.00  0.00
  WS02006111WS02006112    1.00   0.02  0.00  0.00  0.98  0.00  0.00  0.00  0.98  0.00
  WS02006112WS02006115    1.00   0.02  0.00  0.00  0.97  0.00  0.00  0.00  0.00  0.00
  WS02006113WS02006111    1.00   0.02  0.00  0.00  0.00  0.98  0.00  0.00  0.07  0.00
  WS02006115WS02006116    1.00   0.02  0.00  0.00  0.97  0.00  0.00  0.01  0.00  0.00
  WS02006116WS02004401    1.00   0.02  0.00  0.00  0.98  0.00  0.00  0.00  0.00  0.00
  WS02006228WS02006109    1.00   0.00  0.00  0.00  1.00  0.00  0.00  0.00  0.00  0.00
  WS02006229WS02006228    1.00   0.00  0.00  0.00  0.99  0.00  0.00  0.01  0.00  0.00
  WS02006230WS02006229    1.00   0.00  0.00  0.00  0.99  0.00  0.00  0.01  0.01  0.00
  WS02006231WS02006230    1.00   0.00  0.00  0.00  0.11  0.00  0.89  0.00  0.00  0.00
  WS02006232WS02006231    1.00   0.00  0.00  0.00  0.99  0.00  0.00  0.00  0.00  0.00
  WS02006234WS02006232    1.00   0.00  0.00  0.00  1.00  0.00  0.00  0.00  0.29  0.00
  WS02006235WS02006234    1.00   0.00  0.00  0.00  0.55  0.00  0.45  0.00  0.00  0.00
  WS02006238WS02006235    1.00   0.00  0.00  0.00  1.00  0.00  0.00  0.00  0.00  0.00
  WS02006239WS02006238    1.00   0.00  0.00  0.00  1.00  0.00  0.00  0.00  0.39  0.00
  WS02006240WS02006239    1.00   0.00  0.00  0.00  0.37  0.00  0.00  0.63  0.01  0.00
  WS02006242WS02006240    1.00   0.00  0.00  0.00  1.00  0.00  0.00  0.00  0.00  0.00
  WS02006243WS02006242    1.00   0.00  0.00  0.00  0.99  0.00  0.00  0.00  0.74  0.00
  WS02006245WS02006243    1.00   0.00  0.00  0.00  0.69  0.00  0.00  0.31  0.00  0.00
  WS02006247WS02006245    1.00   0.00  0.00  0.00  0.98  0.00  0.00  0.02  0.00  0.00
  WS02006248WS02006247    1.00   0.00  0.00  0.00  0.99  0.00  0.00  0.01  0.63  0.00
  WS02006249WS02006248    1.00   0.00  0.00  0.00  0.33  0.00  0.67  0.00  0.00  0.00
  WS02006251WS02006249    1.00   0.00  0.00  0.00  0.99  0.01  0.00  0.00  0.66  0.00
  WS02006252WS02006251    1.00   0.00  0.69  0.00  0.01  0.00  0.29  0.00  0.00  0.00
  WS02006256WS02006235    1.00   0.00  0.00  0.00  1.00  0.00  0.00  0.00  0.00  0.00
  WSF200WS02003060        1.00   0.00  0.09  0.00  0.62  0.28  0.00  0.00  0.74  0.00
  YS02001580YS02001583    1.00   0.27  0.54  0.00  0.18  0.00  0.00  0.00  0.64  0.00
  YS02001583YS02001586    1.00   0.41  0.35  0.00  0.24  0.00  0.00  0.00  0.64  0.00
  YS02001586YS02001590    1.00   0.13  0.00  0.00  0.44  0.04  0.00  0.39  0.39  0.00
  YS02001590YS02001593    1.00   0.13  0.01  0.00  0.11  0.00  0.76  0.00  0.00  0.00
  YS02001593YS02001596    1.00   0.13  0.00  0.00  0.13  0.01  0.00  0.73  0.02  0.00
  YS02001596YS02001600    1.00   0.14  0.00  0.00  0.19  0.02  0.00  0.65  0.05  0.00
  YS02001600YS02001601    1.00   0.13  0.01  0.00  0.86  0.00  0.00  0.00  0.60  0.00
  YS02001601YS02001602    1.00   0.13  0.01  0.00  0.87  0.00  0.00  0.00  0.00  0.00
  YS02001602YS02001605    1.00   0.14  0.00  0.00  0.86  0.00  0.00  0.00  0.00  0.00
  YS02001605YS02001607    1.00   0.14  0.00  0.00  0.86  0.00  0.00  0.00  0.00  0.00
  YS02001607YS02001610    1.00   0.13  0.01  0.00  0.86  0.00  0.00  0.00  0.02  0.00
  YS02001610YS02001613    1.00   0.13  0.00  0.00  0.87  0.00  0.00  0.00  0.01  0.00
  YS02001613YS02001616    1.00   0.13  0.00  0.00  0.87  0.00  0.00  0.00  0.00  0.00
  YS02001616YS02001619    1.00   0.13  0.00  0.00  0.87  0.00  0.00  0.00  0.00  0.00
  YS02001619YS02001622    1.00   0.13  0.00  0.00  0.87  0.00  0.00  0.00  0.27  0.00
  YS02001622YS02001625    1.00   0.13  0.00  0.00  0.87  0.00  0.00  0.00  0.05  0.00
  YS02001625YS02001629    1.00   0.13  0.05  0.00  0.15  0.00  0.67  0.00  0.00  0.00
  YS02001629YS02163301    1.00   0.15  0.01  0.00  0.83  0.00  0.00  0.00  0.00  0.00
  YS02001633YS02163601    1.00   0.00  0.01  0.00  0.99  0.00  0.00  0.00  0.15  0.00
  YS02001641YS02001644    1.00   0.00  0.01  0.00  0.99  0.00  0.00  0.00  0.00  0.00
  YS02001644YS02001647    1.00   0.00  0.18  0.00  0.82  0.00  0.00  0.00  0.00  0.00
  YS02001647YS02001649    1.00   0.00  0.17  0.00  0.48  0.35  0.00  0.00  0.56  0.00
  YS02001649YS02001757    1.00   0.00  0.00  0.00  0.62  0.38  0.00  0.00  0.49  0.00
  YS02001652YS02001649    1.00   0.00  0.00  0.00  0.96  0.04  0.00  0.00  0.75  0.00
  YS02001655YS02001652    1.00   0.00  0.00  0.00  0.17  0.02  0.00  0.82  0.07  0.00
  YS02001658YS02001655    1.00   0.00  0.14  0.00  0.62  0.24  0.00  0.00  0.73  0.00
  YS02001661YS02001658    1.00   0.14  0.00  0.00  0.45  0.40  0.00  0.00  0.73  0.00
  YS02001664YS02001661    1.00   0.13  0.00  0.00  0.75  0.13  0.00  0.00  0.86  0.00
  YS02001745YS02001748    1.00   0.00  0.00  0.00  0.05  0.01  0.00  0.94  0.03  0.00
  YS02001748YS02001751    1.00   0.00  0.00  0.00  0.77  0.23  0.00  0.00  0.77  0.00
  YS02001751YS02001754    1.00   0.00  0.00  0.00  0.11  0.01  0.00  0.88  0.03  0.00
  YS02001754YS02001757    1.00   0.00  0.00  0.00  1.00  0.00  0.00  0.00  0.86  0.00
  YS02001757CaochengTiaoxuchi    1.00   0.00  0.00  0.00  0.92  0.08  0.00  0.00  0.84  0.00
  YS02001759YS02001757    1.00   0.00  0.00  0.00  1.00  0.00  0.00  0.00  0.60  0.00
  YS02001762YS02001759    1.00   0.00  0.00  0.00  1.00  0.00  0.00  0.00  0.05  0.00
  YS02001765YS02001762    1.00   0.00  0.00  0.00  1.00  0.00  0.00  0.00  0.74  0.00
  YS02001767YS02001765    1.00   0.00  0.00  0.00  1.00  0.00  0.00  0.00  0.00  0.00
  YS02001770YS02001767    1.00   0.00  0.00  0.00  1.00  0.00  0.00  0.00  0.00  0.00
  YS02001774YS02001770    1.00   0.00  0.13  0.00  0.70  0.00  0.16  0.00  0.03  0.00
  YS02001779YS02001774    1.00   0.00  0.00  0.00  1.00  0.00  0.00  0.00  0.79  0.00
  YS02001783YS02001784    1.00   0.00  0.18  0.00  0.82  0.00  0.00  0.00  0.55  0.00
  YS02001784YS02001785    1.00   0.00  0.00  0.00  1.00  0.00  0.00  0.00  0.17  0.00
  YS02001786YS02001788    1.00   0.00  0.00  0.00  0.79  0.21  0.00  0.00  0.00  0.00
  YS02001788YS02001790    1.00   0.00  0.00  0.00  0.21  0.79  0.00  0.00  0.80  0.00
  YS02001790YS02001791    1.00   0.00  0.00  0.00  0.01  0.99  0.00  0.00  0.16  0.00
  YS02001791YS02001793    1.00   0.00  0.00  0.00  0.00  1.00  0.00  0.00  0.01  0.00
  YS02001793JiankangQianchi    1.00   0.00  0.00  0.00  0.99  0.01  0.00  0.00  0.95  0.00
  YS02001882YS02001884    1.00   0.15  0.01  0.00  0.84  0.00  0.00  0.00  0.00  0.00
  YS02001884YS02001887    1.00   0.06  0.05  0.00  0.89  0.00  0.00  0.00  0.00  0.00
  YS02001887YS02001890    1.00   0.00  0.00  0.00  0.97  0.00  0.03  0.00  0.00  0.00
  YS02001890YS02001895    1.00   0.00  0.16  0.00  0.83  0.00  0.00  0.00  0.00  0.00
  YS02001895YS02001898    1.00   0.17  0.00  0.00  0.81  0.00  0.02  0.00  0.00  0.00
  YS02001898YS02001901    1.00   0.17  0.00  0.00  0.83  0.00  0.00  0.00  0.01  0.00
  YS02001901YS02001904    1.00   0.17  0.00  0.00  0.83  0.00  0.00  0.00  0.00  0.00
  YS02001904YS02001907    1.00   0.00  0.16  0.00  0.83  0.00  0.00  0.00  0.00  0.00
  YS02001907YS02006553    1.00   0.00  0.02  0.00  0.98  0.00  0.00  0.00  0.00  0.00
  YS02001910YS02001907    1.00   0.00  0.00  0.00  0.97  0.00  0.00  0.03  0.12  0.00
  YS02001915YS02001910    1.00   0.00  0.00  0.00  0.97  0.03  0.00  0.00  0.16  0.00
  YS02001918YS02001915    1.00   0.00  0.01  0.00  0.98  0.02  0.00  0.00  0.75  0.00
  YS02001920YS02001918    1.00   0.00  0.01  0.00  0.99  0.00  0.00  0.00  0.00  0.00
  YS02001923YS02001920    1.00   0.00  0.00  0.00  1.00  0.00  0.00  0.00  0.93  0.00
  YS02001926YS02001923    1.00   0.00  0.07  0.00  0.06  0.00  0.87  0.00  0.00  0.00
  YS02001929YS02001926    1.00   0.00  0.13  0.00  0.87  0.00  0.00  0.00  0.83  0.00
  YS02006553YS02006556    1.00   0.01  0.00  0.00  0.99  0.00  0.00  0.00  0.03  0.00
  YS02006556YS02006558    1.00   0.00  0.00  0.00  1.00  0.00  0.00  0.00  0.00  0.00
  YS02006558YS02006561    1.00   0.18  0.00  0.00  0.05  0.77  0.00  0.00  0.19  0.00
  YS02006561YS02001783    1.00   0.18  0.00  0.00  0.09  0.73  0.00  0.00  0.69  0.00
  YS02163301YS02001633    1.00   0.00  0.15  0.00  0.85  0.00  0.00  0.00  0.00  0.00
  YS02163601YS02164001    1.00   0.00  0.08  0.00  0.92  0.00  0.00  0.00  0.00  0.00
  YS02164001YS02001641    1.00   0.01  0.07  0.00  0.92  0.00  0.00  0.00  0.06  0.00
  
  
  *************************
  Conduit Surcharge Summary
  *************************
  
  ----------------------------------------------------------------------------
                                                           Hours        Hours 
                         --------- Hours Full --------   Above Full   Capacity
  Conduit                Both Ends  Upstream  Dnstream   Normal Flow   Limited
  ----------------------------------------------------------------------------
  WS02003072WS02003073        0.01      0.01      0.01      0.12         0.01
  WS02004404WS02004405        0.01      0.01      0.01      1.63         0.01
  WS02004405WS02004406        0.01      0.01      0.01      0.04         0.01
  WS02006109WS02006110        0.06      0.06      0.78      0.09         0.01
  WS02006110WS02006113        0.01      0.01      0.75      0.01         0.01
  WS02006111WS02006112        0.01      0.01      1.03      0.01         0.01
  WS02006112WS02006115        0.01      0.01      0.05      0.01         0.01
  WS02006228WS02006109        0.74      0.78      0.74      1.13         0.74
  WS02006229WS02006228        0.73      0.75      0.73      0.95         0.73
  WS02006230WS02006229        0.84      0.94      0.84      2.23         0.84
  WS02006231WS02006230        0.07      0.07      0.11      1.94         0.01
  WS02006232WS02006231        0.10      0.10      0.78      0.13         0.01
  WS02006234WS02006232        0.71      0.71      0.78      0.12         0.12
  WS02006235WS02006234        0.19      0.19      0.72      1.74         0.01
  WS02006238WS02006235        0.74      0.74      0.79      0.01         0.01
  WS02006239WS02006238        0.74      0.75      0.75      0.77         0.70
  WS02006240WS02006239        0.72      0.73      0.73      0.78         0.68
  WS02006242WS02006240        0.73      0.73      0.77      0.88         0.01
  WS02006243WS02006242        0.73      0.73      0.74      0.01         0.01
  WS02006245WS02006243        0.72      0.72      0.73      0.70         0.64
  WS02006247WS02006245        0.72      0.72      0.72      1.65         0.72
  WS02006248WS02006247        0.72      0.72      0.72      0.01         0.01
  WS02006249WS02006248        0.71      0.71      0.71      1.57         0.01
  WS02006251WS02006249        0.71      0.71      0.71      0.83         0.69
  WS02006252WS02006251        0.86      0.86      0.92      0.86         0.01
  WS02006256WS02006235        1.79      1.81      5.12      0.28         0.01
  YS02001580YS02001583        0.56      0.56      0.59      0.01         0.01
  YS02001583YS02001586        0.56      0.56      0.66      0.01         0.01
  YS02001586YS02001590        0.67      0.67      0.74      0.01         0.01
  YS02001590YS02001593        0.73      0.73      0.76      0.77         0.01
  YS02001593YS02001596        0.75      0.75      0.85      0.01         0.01
  YS02001596YS02001600        0.91      0.91      1.01      0.01         0.01
  YS02001600YS02001601        1.07      1.07      1.36      0.01         0.01
  YS02001601YS02001602        1.24      1.24      1.41      1.04         0.01
  YS02001602YS02001605        1.19      1.19      1.24      2.32         0.01
  YS02001605YS02001607        1.14      1.19      1.14      1.32         1.14
  YS02001607YS02001610        0.68      0.68      0.70      0.01         0.01
  YS02001610YS02001613        0.67      0.67      0.70      0.01         0.01
  YS02001613YS02001616        0.63      0.63      0.67      0.01         0.01
  YS02001616YS02001619        0.62      0.62      0.63      0.01         0.01
  YS02001619YS02001622        0.61      0.62      0.61      0.78         0.59
  YS02001622YS02001625        0.61      0.61      0.80      0.01         0.01
  YS02001625YS02001629        0.53      0.53      0.80      0.01         0.01
  YS02001629YS02163301        0.78      0.78      0.78      0.33         0.33
  YS02001633YS02163601        0.81      0.81      0.84      0.46         0.46
  YS02001641YS02001644        0.65      0.69      0.65      1.45         0.64
  YS02001644YS02001647        0.42      0.42      0.65      0.05         0.01
  YS02001647YS02001649        0.42      0.42      0.48      0.01         0.01
  YS02001649YS02001757        0.48      0.48      0.50      0.39         0.31
  YS02001652YS02001649        0.36      0.36      0.48      0.01         0.01
  YS02001655YS02001652        0.24      0.24      0.34      0.01         0.01
  YS02001658YS02001655        0.14      0.14      0.24      0.01         0.01
  YS02001661YS02001658        0.01      0.01      0.14      0.01         0.01
  YS02001664YS02001661        0.01      0.01      0.03      0.01         0.01
  YS02001745YS02001748        0.01      0.01      0.06      0.01         0.01
  YS02001748YS02001751        0.11      0.11      0.17      0.01         0.01
  YS02001751YS02001754        0.17      0.17      0.25      0.01         0.01
  YS02001754YS02001757        0.27      0.27      0.50      0.01         0.01
  YS02001757CaochengTiaoxuchi        0.32      0.50      0.74      0.42         0.18
  YS02001759YS02001757        0.42      0.42      0.50      0.03         0.04
  YS02001762YS02001759        0.40      0.40      0.42      0.01         0.02
  YS02001765YS02001762        0.37      0.37      0.40      0.01         0.01
  YS02001767YS02001765        0.35      0.35      0.37      0.01         0.05
  YS02001770YS02001767        0.35      0.35      0.35      0.53         0.31
  YS02001774YS02001770        0.33      0.33      0.39      0.01         0.01
  YS02001779YS02001774        0.26      0.26      0.39      0.01         0.01
  YS02001783YS02001784        0.47      0.50      0.47      0.66         0.47
  YS02001784YS02001785        0.37      0.47      0.37      0.90         0.37
  YS02001786YS02001788        0.01      0.37      0.01      0.78         0.01
  YS02001790YS02001791        0.01      0.01      0.01      0.46         0.01
  YS02001793JiankangQianchi        0.01      0.01      7.23      0.01         0.01
  YS02001882YS02001884        0.44      0.44      0.45      0.01         0.01
  YS02001884YS02001887        0.48      0.48      0.49      0.01         0.01
  YS02001887YS02001890        0.50      0.50      0.51      0.09         0.01
  YS02001890YS02001895        0.43      0.43      0.53      0.01         0.01
  YS02001895YS02001898        0.42      0.42      0.43      0.01         0.01
  YS02001898YS02001901        0.44      0.44      0.48      0.01         0.01
  YS02001901YS02001904        0.47      0.47      0.48      0.01         0.01
  YS02001904YS02001907        0.47      0.47      0.76      0.01         0.01
  YS02001907YS02006553        0.91      0.91      0.99      0.01         0.01
  YS02001910YS02001907        0.53      0.53      0.74      0.01         0.01
  YS02001915YS02001910        0.44      0.44      0.53      0.01         0.01
  YS02001918YS02001915        0.36      0.36      0.44      0.01         0.01
  YS02001920YS02001918        0.36      0.36      0.37      0.01         0.01
  YS02001923YS02001920        0.32      0.32      0.37      0.01         0.01
  YS02001926YS02001923        0.05      0.05      0.11      0.01         0.01
  YS02001929YS02001926        0.01      0.01      0.11      0.01         0.01
  YS02006553YS02006556        0.63      0.63      0.76      0.01         0.01
  YS02006556YS02006558        0.70      0.70      0.78      0.01         0.01
  YS02006558YS02006561        0.39      0.61      0.39      0.86         0.39
  YS02006561YS02001783        0.32      0.32      0.50      0.01         0.01
  YS02163301YS02001633        0.78      0.78      0.83      0.01         0.01
  YS02163601YS02164001        0.71      0.71      0.84      0.23         0.01
  YS02164001YS02001641        0.69      0.71      0.69      0.73         0.53
  
  
  ***************
  Pumping Summary
  ***************
  
  ---------------------------------------------------------------------------------------------------------
                                                  Min       Avg       Max     Total     Power    % Time Off
                        Percent   Number of      Flow      Flow      Flow    Volume     Usage    Pump Curve
  Pump                 Utilized   Start-Ups       LPS       LPS       LPS  10^6 ltr     Kw-hr    Low   High
  ---------------------------------------------------------------------------------------------------------
  CC-R1                   24.53          47      0.00    683.00    683.00     4.826     83.45    0.0   62.2
  CC-R2                   24.06          47      0.00    683.00    683.00     4.732     81.94    0.0   61.4
  CC-S1                   22.89          46      0.00    200.00    200.00     1.319      8.39    0.0    0.0
  CC-S2                   11.31           4      0.00    200.00    200.00     0.651      3.92    0.0    0.0
  JK-R1                    0.41           4      0.00   1000.00   1000.00     0.118      1.00    0.0    0.0
  JK-R2                   12.80          51      0.00   1000.00   1000.00     3.686     33.69    0.0    0.0
  JK-S                     3.40           8      0.00    300.00    300.00     0.294      3.97    0.0    0.0
  

  Analysis begun on:  Mon Feb 24 09:45:47 2025
  Analysis ended on:  Mon Feb 24 09:45:49 2025
  Total elapsed time: 00:00:02