
  EPA STORM WATER MANAGEMENT MODEL - VERSION 5.2 (Build 5.2.4)
  PYSWMM TOOLKIT API - VERSION v1.0 (2023-11-27)
  ------------------------------------------------------------

  WARNING 04: minimum elevation drop used for Conduit WS02004404WS02004405
  WARNING 03: negative offset ignored for Link YS02001904YS02001907
  
  ****************
  Analysis Options
  ****************
  Flow Units ............... LPS
  Process Models:
    Rainfall/Runoff ........ YES
    RDII ................... NO
    Snowmelt ............... NO
    Groundwater ............ NO
    Flow Routing ........... YES
    Ponding Allowed ........ NO
    Water Quality .......... NO
  Infiltration Method ...... HORTON
  Flow Routing Method ...... DYNWAVE
  Surcharge Method ......... EXTRAN
  Starting Date ............ 08/28/2015 08:00:00
  Ending Date .............. 08/28/2015 16:00:00
  Antecedent Dry Days ...... 8.0
  Report Time Step ......... 00:01:00
  Wet Time Step ............ 00:01:00
  Dry Time Step ............ 00:01:00
  Routing Time Step ........ 30.00 sec
  Variable Time Step ....... YES
  Maximum Trials ........... 8
  Number of Threads ........ 4
  Head Tolerance ........... 0.001500 m
  
  
  **************************        Volume         Depth
  Runoff Quantity Continuity     hectare-m            mm
  **************************     ---------       -------
  Total Precipitation ......         1.542        46.487
  Evaporation Loss .........         0.000         0.000
  Infiltration Loss ........         0.094         2.826
  Surface Runoff ...........         1.416        42.681
  Final Storage ............         0.033         0.992
  Continuity Error (%) .....        -0.025
  
  
  **************************        Volume        Volume
  Flow Routing Continuity        hectare-m      10^6 ltr
  **************************     ---------     ---------
  Dry Weather Inflow .......         0.025         0.251
  Wet Weather Inflow .......         1.415        14.150
  Groundwater Inflow .......         0.000         0.000
  RDII Inflow ..............         0.000         0.000
  External Inflow ..........         0.083         0.834
  External Outflow .........         1.419        14.192
  Flooding Loss ............         0.173         1.729
  Evaporation Loss .........         0.000         0.000
  Exfiltration Loss ........         0.000         0.000
  Initial Stored Volume ....         0.243         2.431
  Final Stored Volume ......         0.181         1.808
  Continuity Error (%) .....        -0.363
  
  
  *************************
  Highest Continuity Errors
  *************************
  Node YS02001583 (-14.16%)
  Node YS02001884 (4.77%)
  Node WS02006256 (-1.72%)
  Node YS02001774 (1.62%)
  Node WS02006249 (1.14%)
  
  
  ***************************
  Time-Step Critical Elements
  ***************************
  Link WS02006252WS02006251 (49.87%)
  Link WS02004404WS02004405 (20.65%)
  Link WS02006238WS02006235 (12.45%)
  Link YS02006556YS02006558 (4.65%)
  Link YS02001791YS02001793 (2.35%)
  
  
  ********************************
  Highest Flow Instability Indexes
  ********************************
  Link WS02006113WS02006111 (31)
  Link WS02006111WS02006112 (13)
  Link WS02006256WS02006235 (11)
  Link YS02001882YS02001884 (10)
  Link WS02004404WS02004405 (10)
  
  
  *********************************
  Most Frequent Nonconverging Nodes
  *********************************
  Node CC-1 (8.62%)
  Node CC-2 (8.62%)
  Node JK-1 (8.62%)
  Node JK-2 (8.62%)
  Node WSC (8.62%)
  
  
  *************************
  Routing Time Step Summary
  *************************
  Minimum Time Step           :     0.02 sec
  Average Time Step           :     2.48 sec
  Maximum Time Step           :     6.43 sec
  % of Time in Steady State   :     0.00
  Average Iterations per Step :     2.83
  % of Steps Not Converging   :     8.62
  Time Step Frequencies       :
     30.000 - 13.228 sec      :     0.00 %
     13.228 -  5.833 sec      :    18.36 %
      5.833 -  2.572 sec      :    19.13 %
      2.572 -  1.134 sec      :     8.22 %
      1.134 -  0.500 sec      :    54.29 %
  
  
  ***************************
  Subcatchment Runoff Summary
  ***************************
  
  ------------------------------------------------------------------------------------------------------------------------------
                            Total      Total      Total      Total     Imperv       Perv      Total       Total     Peak  Runoff
                           Precip      Runon       Evap      Infil     Runoff     Runoff     Runoff      Runoff   Runoff   Coeff
  Subcatchment                 mm         mm         mm         mm         mm         mm         mm    10^6 ltr      LPS
  ------------------------------------------------------------------------------------------------------------------------------
  sub60                     46.49       0.00       0.00       1.74      39.70       3.84      43.54        0.57   345.68   0.937
  sub61                     46.49       0.00       0.00       2.52      37.45       5.39      42.84        0.79   473.39   0.922
  sub62                     46.49       0.00       0.00       1.16      41.48       2.56      44.04        1.21   665.19   0.947
  sub63                     46.49       0.00       0.00       4.59      32.03       8.89      40.93        0.93   508.15   0.880
  sub64                     46.49       0.00       0.00       2.33      38.31       4.65      42.96        1.03   523.84   0.924
  sub65                     46.49       0.00       0.00       2.01      39.19       4.03      43.22        1.19   581.41   0.930
  sub66                     46.49       0.00       0.00       5.57      31.93       7.91      39.84        1.86   723.02   0.857
  sub67                     46.49       0.00       0.00       1.13      41.52       2.59      44.12        0.82   537.37   0.949
  sub68                     46.49       0.00       0.00       2.08      38.79       4.43      43.22        1.19   679.85   0.930
  sub69                     46.49       0.00       0.00       1.81      39.40       5.17      44.57        1.65   790.77   0.959
  sub70                     46.49       0.00       0.00       5.89      30.52       9.92      40.44        1.17   413.34   0.870
  sub71                     46.49       0.00       0.00       1.19      41.44       2.53      43.98        1.15   570.64   0.946
  sub72                     46.49       0.00       0.00       1.05      41.83       2.20      44.04        0.61   269.44   0.947
  
  
  ******************
  Node Depth Summary
  ******************
  
  ---------------------------------------------------------------------------------
                                 Average  Maximum  Maximum  Time of Max    Reported
                                   Depth    Depth      HGL   Occurrence   Max Depth
  Node                 Type       Meters   Meters   Meters  days hr:min      Meters
  ---------------------------------------------------------------------------------
  WS02003060           JUNCTION     0.17     0.34     5.27     0  02:15        0.34
  WS02003066           JUNCTION     0.15     0.27     5.82     0  02:14        0.27
  WS02003067           JUNCTION     0.41     0.65     5.97     0  02:14        0.65
  WS02003069           JUNCTION     0.19     0.37     4.96     0  02:23        0.37
  WS02003072           JUNCTION     0.25     0.45     4.82     0  02:24        0.45
  WS02003073           JUNCTION     0.13     0.26     4.33     0  02:25        0.26
  WS02004401           JUNCTION     0.48     0.78     6.78     0  02:09        0.78
  WS02004402           JUNCTION     0.51     0.81     6.77     0  02:09        0.80
  WS02004403           JUNCTION     0.53     0.84     6.77     0  02:09        0.82
  WS02004404           JUNCTION     0.60     0.93     6.78     0  02:09        0.92
  WS02004405           JUNCTION     0.60     0.89     6.74     0  02:12        0.88
  WS02004406           JUNCTION     0.61     0.89     6.72     0  02:12        0.88
  WS02004407           JUNCTION     0.12     0.26     6.57     0  02:12        0.26
  WS02004409           JUNCTION     0.27     0.58     6.35     0  02:13        0.58
  WS02004410           JUNCTION     0.30     0.59     6.31     0  02:19        0.59
  WS02004411           JUNCTION     0.32     0.61     6.29     0  02:13        0.61
  WS02004412           JUNCTION     0.35     0.62     6.26     0  02:21        0.62
  WS02004413           JUNCTION     0.50     0.79     6.26     0  02:14        0.79
  WS02006109           JUNCTION     0.54     0.83     7.45     0  02:11        0.83
  WS02006110           JUNCTION     0.55     0.82     7.41     0  02:11        0.82
  WS02006111           JUNCTION     0.13     0.25     6.96     0  02:11        0.25
  WS02006112           JUNCTION     0.62     0.96     6.84     0  02:11        0.96
  WS02006113           JUNCTION     0.20     0.39     7.29     0  02:10        0.39
  WS02006115           JUNCTION     0.36     0.67     6.81     0  02:10        0.66
  WS02006116           JUNCTION     0.45     0.75     6.79     0  02:10        0.75
  WS02006228           JUNCTION     0.52     0.84     7.49     0  02:11        0.84
  WS02006229           JUNCTION     0.49     0.82     7.52     0  02:11        0.82
  WS02006230           JUNCTION     0.46     0.86     7.60     0  02:11        0.86
  WS02006231           JUNCTION     0.29     0.60     7.72     0  02:12        0.60
  WS02006232           JUNCTION     0.41     0.75     7.79     0  02:12        0.75
  WS02006234           JUNCTION     0.32     0.71     7.87     0  02:17        0.71
  WS02006235           JUNCTION     0.35     0.76     7.92     0  02:06        0.75
  WS02006238           JUNCTION     0.38     0.80     7.94     0  02:06        0.79
  WS02006239           JUNCTION     0.34     0.80     8.01     0  02:06        0.80
  WS02006240           JUNCTION     0.32     0.78     8.08     0  02:16        0.78
  WS02006242           JUNCTION     0.38     1.11     8.38     0  01:55        0.89
  WS02006243           JUNCTION     0.29     0.83     8.25     0  02:06        0.83
  WS02006245           JUNCTION     0.29     0.85     8.33     0  02:16        0.84
  WS02006247           JUNCTION     0.31     0.88     8.38     0  02:16        0.88
  WS02006248           JUNCTION     0.28     0.85     8.44     0  02:06        0.85
  WS02006249           JUNCTION     0.31     0.89     8.49     0  02:15        0.88
  WS02006251           JUNCTION     0.31     0.91     8.58     0  02:18        0.91
  WS02006252           JUNCTION     0.26     1.50     9.74     0  00:00        0.58
  WS02006256           JUNCTION     0.70     2.35     9.28     0  00:00        2.35
  WSF200               JUNCTION     0.11     0.25     5.49     0  02:14        0.25
  YS02001580           JUNCTION     0.14     1.05     9.59     0  01:37        0.77
  YS02001583           JUNCTION     0.17     1.14     9.64     0  01:37        0.82
  YS02001586           JUNCTION     0.28     1.13     9.30     0  01:36        1.13
  YS02001590           JUNCTION     0.39     1.40     9.26     0  01:36        1.37
  YS02001593           JUNCTION     0.32     1.46     9.32     0  01:36        1.28
  YS02001596           JUNCTION     0.42     1.76     9.18     0  01:36        1.65
  YS02001600           JUNCTION     0.53     1.87     9.00     0  01:36        1.86
  YS02001601           JUNCTION     0.73     2.06     8.90     0  01:36        2.06
  YS02001602           JUNCTION     0.63     1.87     8.77     0  01:37        1.87
  YS02001605           JUNCTION     0.58     1.78     8.68     0  01:37        1.77
  YS02001607           JUNCTION     0.55     1.68     8.53     0  01:37        1.65
  YS02001610           JUNCTION     0.59     1.68     8.48     0  01:37        1.68
  YS02001613           JUNCTION     0.55     1.70     8.54     0  01:37        1.66
  YS02001616           JUNCTION     0.48     1.61     8.52     0  01:37        1.60
  YS02001619           JUNCTION     0.46     1.61     8.54     0  01:37        1.61
  YS02001622           JUNCTION     0.44     1.62     8.52     0  01:37        1.60
  YS02001625           JUNCTION     0.69     1.78     8.38     0  01:37        1.78
  YS02001629           JUNCTION     0.59     1.85     8.40     0  01:37        1.85
  YS02001633           JUNCTION     0.66     2.05     8.51     0  01:40        1.97
  YS02001641           JUNCTION     0.61     1.98     8.42     0  01:40        1.86
  YS02001644           JUNCTION     0.60     1.92     8.35     0  01:40        1.83
  YS02001647           JUNCTION     0.36     1.75     8.36     0  01:40        1.54
  YS02001649           JUNCTION     0.40     2.01     8.40     0  01:40        1.66
  YS02001652           JUNCTION     0.27     2.16     8.76     0  01:40        1.47
  YS02001655           JUNCTION     0.19     2.20     9.05     0  01:40        1.24
  YS02001658           JUNCTION     0.14     1.66     8.81     0  01:42        0.97
  YS02001661           JUNCTION     0.16     0.76     8.16     0  01:42        0.73
  YS02001664           JUNCTION     0.08     0.27     8.20     0  01:41        0.27
  YS02001745           JUNCTION     0.07     0.46     7.98     0  01:41        0.30
  YS02001748           JUNCTION     0.12     0.88     7.96     0  01:41        0.86
  YS02001751           JUNCTION     0.15     2.20     9.08     0  01:40        1.04
  YS02001754           JUNCTION     0.21     2.20     8.81     0  01:40        1.30
  YS02001757           JUNCTION     0.39     1.98     8.24     0  01:40        1.63
  YS02001759           JUNCTION     0.33     1.89     8.25     0  01:40        1.57
  YS02001762           JUNCTION     0.32     2.04     8.44     0  01:39        1.55
  YS02001765           JUNCTION     0.30     2.08     8.53     0  01:39        1.51
  YS02001767           JUNCTION     0.29     2.03     8.52     0  01:39        1.54
  YS02001770           JUNCTION     0.31     1.95     8.44     0  01:39        1.71
  YS02001774           JUNCTION     0.37     2.05     8.47     0  01:39        1.84
  YS02001779           JUNCTION     0.19     1.68     8.37     0  01:39        1.68
  YS02001783           JUNCTION     0.35     2.40     8.54     0  01:39        2.40
  YS02001784           JUNCTION     0.35     2.11     8.17     0  01:39        2.11
  YS02001786           JUNCTION     0.29     1.16     7.19     0  01:39        0.86
  YS02001788           JUNCTION     0.21     0.62     6.59     0  01:48        0.61
  YS02001790           JUNCTION     0.25     0.71     6.36     0  01:49        0.70
  YS02001791           JUNCTION     0.16     0.43     5.90     0  01:48        0.42
  YS02001793           JUNCTION     0.08     0.28     5.11     0  01:40        0.28
  YS02001882           JUNCTION     0.43     1.83     8.55     0  01:37        1.73
  YS02001884           JUNCTION     0.51     1.91     8.53     0  01:38        1.86
  YS02001887           JUNCTION     0.58     1.96     8.50     0  01:38        1.85
  YS02001890           JUNCTION     0.61     1.81     8.32     0  01:38        1.81
  YS02001895           JUNCTION     0.40     1.75     8.50     0  01:37        1.75
  YS02001898           JUNCTION     0.40     1.77     8.51     0  01:38        1.55
  YS02001901           JUNCTION     0.51     1.86     8.47     0  01:38        1.66
  YS02001904           JUNCTION     0.49     1.76     8.39     0  01:38        1.64
  YS02001907           JUNCTION     0.79     1.96     8.25     0  01:38        1.96
  YS02001910           JUNCTION     0.60     1.99     8.50     0  01:39        1.83
  YS02001915           JUNCTION     0.43     2.00     8.72     0  01:38        1.70
  YS02001918           JUNCTION     0.25     1.81     8.88     0  01:38        1.42
  YS02001920           JUNCTION     0.33     2.09     9.10     0  01:39        1.52
  YS02001923           JUNCTION     0.20     2.03     9.29     0  01:39        1.30
  YS02001926           JUNCTION     0.22     1.90     9.35     0  01:39        1.17
  YS02001929           JUNCTION     0.13     1.78     9.47     0  01:39        0.98
  YS02006553           JUNCTION     0.79     2.19     8.47     0  01:39        2.19
  YS02006556           JUNCTION     0.76     2.39     8.70     0  01:39        2.39
  YS02006558           JUNCTION     0.80     2.50     8.77     0  01:39        2.50
  YS02006561           JUNCTION     0.22     1.95     8.61     0  01:39        1.95
  YS02163301           JUNCTION     0.61     1.94     8.46     0  01:40        1.89
  YS02163601           JUNCTION     0.68     2.08     8.48     0  01:40        1.95
  YS02164001           JUNCTION     0.61     2.00     8.46     0  01:40        1.86
  CC-1                 OUTFALL      0.00     0.00     0.00     0  00:00        0.00
  CC-2                 OUTFALL      0.00     0.00     0.00     0  00:00        0.00
  JK-1                 OUTFALL      0.00     0.00     0.00     0  00:00        0.00
  JK-2                 OUTFALL      0.00     0.00     0.00     0  00:00        0.00
  WSC                  OUTFALL      0.13     0.26     0.93     0  02:25        0.26
  CC-storage           STORAGE      0.66     1.16     6.66     0  02:10        1.16
  JK-storage           STORAGE      1.75     4.21     5.01     0  01:39        4.17
  
  
  *******************
  Node Inflow Summary
  *******************
  
  -------------------------------------------------------------------------------------------------
                                  Maximum  Maximum                  Lateral       Total        Flow
                                  Lateral    Total  Time of Max      Inflow      Inflow     Balance
                                   Inflow   Inflow   Occurrence      Volume      Volume       Error
  Node                 Type           LPS      LPS  days hr:min    10^6 ltr    10^6 ltr     Percent
  -------------------------------------------------------------------------------------------------
  WS02003060           JUNCTION     16.53   429.87     0  02:14       0.476         2.6       0.075
  WS02003066           JUNCTION      0.00   412.83     0  02:14           0        2.13       0.058
  WS02003067           JUNCTION      0.00   412.67     0  02:14           0        2.13       0.187
  WS02003069           JUNCTION      0.32   429.81     0  02:15     0.00922        2.61       0.134
  WS02003072           JUNCTION      0.00   429.24     0  02:24           0        2.61       0.246
  WS02003073           JUNCTION      1.82   431.02     0  02:24      0.0524        2.65       0.188
  WS02004401           JUNCTION      0.00   426.21     0  02:10           0        2.23       0.450
  WS02004402           JUNCTION      0.00   430.79     0  02:11           0        2.22       0.457
  WS02004403           JUNCTION      0.00   429.38     0  02:10           0        2.21       0.449
  WS02004404           JUNCTION      0.16   433.52     0  02:12     0.00467        2.21       0.453
  WS02004405           JUNCTION      0.04   512.91     0  02:09      0.0011         2.2       0.477
  WS02004406           JUNCTION      0.00   435.58     0  02:10           0        2.19       0.942
  WS02004407           JUNCTION      0.00   419.43     0  02:12           0        2.17       0.041
  WS02004409           JUNCTION      0.00   418.42     0  02:12           0        2.17       0.100
  WS02004410           JUNCTION      0.00   418.84     0  02:13           0        2.16       0.185
  WS02004411           JUNCTION      0.00   415.66     0  02:13           0        2.16       0.240
  WS02004412           JUNCTION      0.00   415.51     0  02:13           0        2.15       0.327
  WS02004413           JUNCTION      0.00   413.68     0  02:14           0        2.15       0.606
  WS02006109           JUNCTION      1.23   411.69     0  02:12      0.0354        2.28       0.306
  WS02006110           JUNCTION      0.00   411.70     0  02:12           0        2.27       0.284
  WS02006111           JUNCTION      0.00   422.82     0  02:07           0        2.26       0.044
  WS02006112           JUNCTION      0.00   414.36     0  02:11           0        2.26       0.816
  WS02006113           JUNCTION      0.00   411.99     0  02:08           0        2.26       0.055
  WS02006115           JUNCTION      0.00   432.71     0  02:11           0        2.24       0.292
  WS02006116           JUNCTION      0.00   437.58     0  02:11           0        2.24       0.187
  WS02006228           JUNCTION      0.00   410.45     0  02:12           0        2.24       0.108
  WS02006229           JUNCTION      0.00   410.44     0  02:09           0        2.25       0.194
  WS02006230           JUNCTION     10.28   410.41     0  02:12       0.296        2.25       0.247
  WS02006231           JUNCTION      0.00   400.11     0  02:10           0        1.95      -0.102
  WS02006232           JUNCTION      0.00   400.10     0  02:10           0        1.96       0.423
  WS02006234           JUNCTION      0.00   414.90     0  01:49           0        1.96      -0.294
  WS02006235           JUNCTION      0.00   488.31     0  01:51           0        1.98       0.394
  WS02006238           JUNCTION      0.00   400.21     0  02:20           0        1.81      -0.202
  WS02006239           JUNCTION      0.00   400.18     0  02:16           0        1.79      -0.157
  WS02006240           JUNCTION      0.00   400.34     0  02:16           0        1.79      -0.062
  WS02006242           JUNCTION      0.00   400.36     0  02:06           0        1.79      -0.014
  WS02006243           JUNCTION      0.00   400.38     0  02:16           0        1.78      -0.133
  WS02006245           JUNCTION      0.00   402.92     0  01:56           0        1.79       0.678
  WS02006247           JUNCTION      0.00   409.39     0  01:57           0        1.79      -0.010
  WS02006248           JUNCTION      0.00   407.95     0  01:56           0        1.79      -0.375
  WS02006249           JUNCTION      0.00   459.02     0  00:00           0        1.81       1.151
  WS02006251           JUNCTION      0.08   400.83     0  01:55     0.00222        1.81      -0.002
  WS02006252           JUNCTION      0.00   400.00     0  00:00           0        1.79      -1.041
  WS02006256           JUNCTION      0.00   300.00     0  00:00           0       0.214      -1.692
  WSF200               JUNCTION      0.00   412.78     0  02:14           0        2.13       0.021
  YS02001580           JUNCTION      0.00   216.92     0  01:37           0     0.00471      -0.538
  YS02001583           JUNCTION      0.00   263.90     0  01:37           0      0.0147     -12.407
  YS02001586           JUNCTION    413.34   413.40     0  01:44        1.17        1.18       0.157
  YS02001590           JUNCTION      0.00   317.75     0  01:54           0         1.1      -0.043
  YS02001593           JUNCTION      0.00   317.70     0  01:55           0         1.1      -0.003
  YS02001596           JUNCTION      0.00   317.79     0  01:55           0         1.1      -0.029
  YS02001600           JUNCTION      0.00   317.87     0  01:54           0         1.1      -0.017
  YS02001601           JUNCTION    790.77  1108.30     0  01:41        1.65        2.75       0.016
  YS02001602           JUNCTION      0.00   592.63     0  01:37           0        2.02       0.015
  YS02001605           JUNCTION      0.00   592.61     0  01:37           0        1.95       0.011
  YS02001607           JUNCTION      0.00   592.56     0  01:37           0        1.95       0.076
  YS02001610           JUNCTION      0.00   567.55     0  01:37           0        1.95       0.108
  YS02001613           JUNCTION      0.00   538.74     0  01:37           0        1.77       0.078
  YS02001616           JUNCTION      0.00   510.05     0  02:06           0        1.77       0.000
  YS02001619           JUNCTION    723.02   897.46     0  01:58        1.86        3.63      -0.011
  YS02001622           JUNCTION      0.00   897.42     0  01:58           0        3.63      -0.009
  YS02001625           JUNCTION      0.00   897.66     0  01:59           0        3.63       0.244
  YS02001629           JUNCTION      0.00   898.44     0  01:59           0        3.38       0.016
  YS02001633           JUNCTION    581.61  1378.72     0  01:38         1.2        4.58       0.069
  YS02001641           JUNCTION      0.00  1377.92     0  01:38           0        4.58       0.057
  YS02001644           JUNCTION    523.88  1865.33     0  01:38        1.03        5.61       0.056
  YS02001647           JUNCTION      0.00  1864.89     0  01:38           0        5.59       0.003
  YS02001649           JUNCTION      0.00  2182.47     0  01:39           0        6.53       0.005
  YS02001652           JUNCTION      0.00   588.01     0  01:42           0       0.932      -0.249
  YS02001655           JUNCTION      0.15   670.37     0  01:40     0.00443       0.933       0.065
  YS02001658           JUNCTION      0.00   595.25     0  01:42           0       0.928      -0.004
  YS02001661           JUNCTION      0.00   511.42     0  01:41           0       0.929       0.037
  YS02001664           JUNCTION    508.15   508.15     0  01:40       0.928       0.928      -0.008
  YS02001745           JUNCTION    345.69   345.69     0  01:39       0.572       0.572       0.207
  YS02001748           JUNCTION      0.04   535.40     0  01:40      0.0013       0.574      -0.216
  YS02001751           JUNCTION      0.01   504.39     0  01:40    0.000317       0.579       0.146
  YS02001754           JUNCTION      0.26   405.69     0  01:42     0.00749       0.588      -0.319
  YS02001757           JUNCTION      0.00  3283.23     0  01:42           0        9.13       0.068
  YS02001759           JUNCTION    473.43  1156.78     0  01:40       0.787        2.01      -0.017
  YS02001762           JUNCTION      0.00   681.95     0  01:40           0        1.22       0.001
  YS02001765           JUNCTION      0.00   683.89     0  01:40           0        1.22      -0.009
  YS02001767           JUNCTION      0.54   682.46     0  01:40      0.0154        1.22      -0.025
  YS02001770           JUNCTION    665.34   677.34     0  01:40        1.21        1.25      -0.042
  YS02001774           JUNCTION      0.00   419.28     0  01:39           0      0.0636       1.642
  YS02001779           JUNCTION      0.01   424.54     0  01:39    0.000144      0.0212      -2.446
  YS02001783           JUNCTION      0.00  1152.69     0  01:40           0        3.42       0.004
  YS02001784           JUNCTION      1.06  1153.81     0  01:39      0.0305        3.45       0.012
  YS02001786           JUNCTION      0.06  1153.80     0  01:40     0.00162        3.45       0.015
  YS02001788           JUNCTION      0.07  1160.38     0  01:39     0.00204        3.45       0.009
  YS02001790           JUNCTION      0.15  1160.60     0  01:43     0.00446        3.46       0.039
  YS02001791           JUNCTION      0.00  1267.37     0  01:49           0        3.46      -0.023
  YS02001793           JUNCTION      0.00  1217.27     0  01:48           0        3.46       0.009
  YS02001882           JUNCTION      0.00    74.70     0  01:37           0      0.0126       4.349
  YS02001884           JUNCTION      0.00   128.31     0  01:37           0      0.0483       5.013
  YS02001887           JUNCTION    537.82   554.85     0  01:37       0.833       0.866       0.495
  YS02001890           JUNCTION      0.00   554.27     0  01:37           0       0.826       0.586
  YS02001895           JUNCTION      0.00   559.95     0  01:37           0       0.819       0.162
  YS02001898           JUNCTION      0.00   549.50     0  01:38           0       0.817      -0.003
  YS02001901           JUNCTION      0.00   552.87     0  01:38           0        0.82       0.382
  YS02001904           JUNCTION      0.00   554.19     0  01:38           0        0.83       0.316
  YS02001907           JUNCTION      0.00  1514.03     0  01:40           0        2.66       0.654
  YS02001910           JUNCTION      0.00  1003.35     0  01:40           0        1.84       0.370
  YS02001915           JUNCTION    570.66  1003.28     0  01:40        1.15        1.89       0.073
  YS02001918           JUNCTION      0.00   637.23     0  01:38           0       0.779       0.005
  YS02001920           JUNCTION      2.87   576.61     0  01:38      0.0827        0.75       0.115
  YS02001923           JUNCTION      0.04   686.11     0  01:38     0.00109       0.649      -0.070
  YS02001926           JUNCTION      0.05   972.47     0  01:39      0.0015       0.627       0.004
  YS02001929           JUNCTION    269.44   781.86     0  01:39       0.605       0.612      -0.088
  YS02006553           JUNCTION      0.00   787.66     0  01:55           0        2.26       0.509
  YS02006556           JUNCTION      0.00   787.16     0  01:53           0        2.27       0.329
  YS02006558           JUNCTION    680.73  1178.78     0  01:38        1.21        3.46       0.090
  YS02006561           JUNCTION      0.00  1177.94     0  01:38           0        3.42      -0.001
  YS02163301           JUNCTION      0.00   904.73     0  01:59           0        3.39       0.038
  YS02163601           JUNCTION      0.11  1378.93     0  01:38     0.00317        4.58       0.102
  YS02164001           JUNCTION      0.00  1378.85     0  01:38           0        4.57       0.044
  CC-1                 OUTFALL       0.00   683.00     0  00:00           0        3.99       0.000
  CC-2                 OUTFALL       0.00   683.00     0  00:00           0         4.2       0.000
  JK-1                 OUTFALL       0.00  1000.00     0  00:00           0       0.062       0.000
  JK-2                 OUTFALL       0.00  1000.00     0  00:00           0        3.29       0.000
  WSC                  OUTFALL       0.00   430.99     0  02:25           0        2.65       0.000
  CC-storage           STORAGE       0.00  3283.76     0  01:42           0        11.3      -0.244
  JK-storage           STORAGE       0.00  1231.56     0  01:44           0        3.61      -0.442
  
  
  **********************
  Node Surcharge Summary
  **********************
  
  Surcharging occurs when water rises above the top of the highest conduit.
  ---------------------------------------------------------------------
                                               Max. Height   Min. Depth
                                   Hours       Above Crown    Below Rim
  Node                 Type      Surcharged         Meters       Meters
  ---------------------------------------------------------------------
  WS02006109           JUNCTION        0.52          0.015        1.805
  WS02006228           JUNCTION        0.51          0.013        2.187
  WS02006229           JUNCTION        0.52          0.024        2.426
  WS02006232           JUNCTION        0.59          0.050        1.430
  WS02006235           JUNCTION        0.52          0.046        1.244
  WS02006238           JUNCTION        0.55          0.075        1.355
  WS02006239           JUNCTION        0.53          0.059        1.231
  WS02006240           JUNCTION        0.53          0.075        1.315
  WS02006242           JUNCTION        0.60          0.378        0.442
  WS02006243           JUNCTION        0.54          0.125        0.645
  WS02006245           JUNCTION        0.54          0.138        0.712
  WS02006247           JUNCTION        0.56          0.174        0.586
  WS02006248           JUNCTION        0.54          0.132        0.248
  WS02006249           JUNCTION        0.56          0.189        0.201
  WS02006252           JUNCTION        0.76          1.100        0.000
  WS02006256           JUNCTION        5.25          2.050        0.000
  YS02001580           JUNCTION        0.43          0.450        0.000
  YS02001583           JUNCTION        0.43          0.500        0.000
  YS02001586           JUNCTION        0.57          0.510        0.000
  YS02001590           JUNCTION        0.64          0.750        0.000
  YS02001593           JUNCTION        0.64          0.840        0.000
  YS02001596           JUNCTION        0.73          1.026        0.044
  YS02001600           JUNCTION        0.87          1.190        0.000
  YS02001601           JUNCTION        1.26          1.440        0.000
  YS02001602           JUNCTION        1.12          1.270        0.000
  YS02001605           JUNCTION        1.06          1.180        0.000
  YS02001607           JUNCTION        0.56          0.680        0.000
  YS02001610           JUNCTION        0.59          0.680        0.000
  YS02001613           JUNCTION        0.55          0.700        0.000
  YS02001616           JUNCTION        0.51          0.610        0.000
  YS02001619           JUNCTION        0.50          0.610        0.000
  YS02001622           JUNCTION        0.49          0.620        0.000
  YS02001625           JUNCTION        0.68          0.780        0.000
  YS02001629           JUNCTION        0.40          0.470        0.000
  YS02001633           JUNCTION        0.68          1.033        0.027
  YS02001641           JUNCTION        0.58          0.980        0.120
  YS02001644           JUNCTION        0.53          0.920        0.000
  YS02001647           JUNCTION        0.32          0.754        0.146
  YS02001649           JUNCTION        0.38          1.009        0.041
  YS02001652           JUNCTION        0.20          1.130        0.000
  YS02001655           JUNCTION        0.10          1.200        0.000
  YS02001658           JUNCTION        0.01          0.663        0.637
  YS02001751           JUNCTION        0.02          1.200        0.000
  YS02001754           JUNCTION        0.10          1.150        0.000
  YS02001757           JUNCTION        0.38          0.980        0.230
  YS02001759           JUNCTION        0.30          0.887        0.323
  YS02001762           JUNCTION        0.28          1.041        0.109
  YS02001765           JUNCTION        0.23          1.081        0.019
  YS02001767           JUNCTION        0.21          1.030        0.000
  YS02001770           JUNCTION        0.20          0.920        0.000
  YS02001774           JUNCTION        0.28          1.050        0.000
  YS02001779           JUNCTION        0.13          0.680        0.000
  YS02001783           JUNCTION        0.43          1.600        0.000
  YS02001784           JUNCTION        0.41          1.306        0.184
  YS02001786           JUNCTION        0.31          0.355        1.075
  YS02001882           JUNCTION        0.38          0.830        0.000
  YS02001884           JUNCTION        0.39          0.850        0.020
  YS02001887           JUNCTION        0.42          0.913        0.037
  YS02001890           JUNCTION        0.43          0.760        0.000
  YS02001895           JUNCTION        0.37          0.750        0.000
  YS02001898           JUNCTION        0.36          0.740        0.000
  YS02001901           JUNCTION        0.41          0.863        0.007
  YS02001904           JUNCTION        0.40          0.760        0.090
  YS02001907           JUNCTION        0.60          0.950        0.000
  YS02001910           JUNCTION        0.46          0.991        0.109
  YS02001915           JUNCTION        0.38          1.000        0.000
  YS02001918           JUNCTION        0.29          0.810        0.000
  YS02001920           JUNCTION        0.31          1.089        0.051
  YS02001923           JUNCTION        0.01          0.820        0.000
  YS02001926           JUNCTION        0.01          0.900        0.000
  YS02001929           JUNCTION        0.01          0.780        0.000
  YS02006553           JUNCTION        0.61          1.190        0.000
  YS02006556           JUNCTION        0.53          1.350        0.000
  YS02006558           JUNCTION        0.52          1.400        0.000
  YS02006561           JUNCTION        0.26          1.150        0.000
  YS02163301           JUNCTION        0.67          0.939        0.091
  YS02163601           JUNCTION        0.71          1.080        0.000
  YS02164001           JUNCTION        0.60          1.000        0.100
  
  
  *********************
  Node Flooding Summary
  *********************
  
  Flooding refers to all water that overflows a node, whether it ponds or not.
  --------------------------------------------------------------------------
                                                             Total   Maximum
                                 Maximum   Time of Max       Flood    Ponded
                        Hours       Rate    Occurrence      Volume     Depth
  Node                 Flooded       LPS   days hr:min    10^6 ltr    Meters
  --------------------------------------------------------------------------
  WS02006252              0.01    245.63      0  00:00       0.000     0.000
  WS02006256              0.20    293.19      0  00:00       0.043     0.000
  YS02001580              0.01    195.87      0  01:37       0.001     0.000
  YS02001583              0.01    239.09      0  01:37       0.000     0.000
  YS02001586              0.30    155.44      0  01:37       0.067     0.000
  YS02001590              0.01    119.81      0  01:36       0.000     0.000
  YS02001593              0.01    105.25      0  01:36       0.000     0.000
  YS02001600              0.01      9.59      0  01:36       0.000     0.000
  YS02001601              0.49    710.49      0  01:41       0.729     0.000
  YS02001602              0.33     61.83      0  01:41       0.066     0.000
  YS02001605              0.01     11.88      0  01:37       0.000     0.000
  YS02001607              0.01    244.73      0  01:37       0.001     0.000
  YS02001610              0.28    239.24      0  01:44       0.176     0.000
  YS02001613              0.01     46.69      0  01:37       0.000     0.000
  YS02001616              0.01    262.23      0  01:37       0.001     0.000
  YS02001619              0.01    142.53      0  01:37       0.000     0.000
  YS02001622              0.01    123.94      0  01:37       0.000     0.000
  YS02001625              0.22    602.60      0  01:42       0.237     0.000
  YS02001629              0.01    270.28      0  01:37       0.002     0.000
  YS02001644              0.01     25.94      0  01:40       0.000     0.000
  YS02001652              0.01     91.61      0  01:40       0.000     0.000
  YS02001655              0.01    402.15      0  01:40       0.001     0.000
  YS02001751              0.01    365.86      0  01:40       0.000     0.000
  YS02001754              0.01    114.18      0  01:40       0.000     0.000
  YS02001767              0.01    166.78      0  01:39       0.000     0.000
  YS02001770              0.01     63.65      0  01:39       0.000     0.000
  YS02001774              0.01     57.56      0  01:39       0.000     0.000
  YS02001779              0.01    387.32      0  01:39       0.003     0.000
  YS02001783              0.01      6.84      0  01:39       0.000     0.000
  YS02001882              0.01     58.25      0  01:37       0.000     0.000
  YS02001890              0.02    166.01      0  01:38       0.002     0.000
  YS02001895              0.01    231.62      0  01:37       0.000     0.000
  YS02001898              0.01    218.86      0  01:38       0.000     0.000
  YS02001907              0.24   1039.08      0  01:40       0.391     0.000
  YS02001915              0.01    243.99      0  01:38       0.000     0.000
  YS02001918              0.01    169.64      0  01:38       0.002     0.000
  YS02001923              0.01    170.91      0  01:39       0.000     0.000
  YS02001926              0.01    717.11      0  01:39       0.002     0.000
  YS02001929              0.01    590.96      0  01:39       0.003     0.000
  YS02006553              0.01      4.54      0  01:39       0.000     0.000
  YS02006556              0.01     18.62      0  01:39       0.000     0.000
  YS02006558              0.01     11.16      0  01:39       0.000     0.000
  YS02006561              0.01      5.96      0  01:39       0.000     0.000
  YS02163601              0.01      1.95      0  01:40       0.000     0.000
  
  
  **********************
  Storage Volume Summary
  **********************
  
  ------------------------------------------------------------------------------------------------
                         Average    Avg   Evap  Exfil     Maximum    Max    Time of Max    Maximum
                          Volume   Pcnt   Pcnt   Pcnt      Volume   Pcnt     Occurrence    Outflow
  Storage Unit           1000 m³   Full   Loss   Loss     1000 m³   Full    days hr:min        LPS
  ------------------------------------------------------------------------------------------------
  CC-storage               1.853   28.9    0.0    0.0       3.226   50.3       0  02:10    1783.53
  JK-storage               0.088   30.2    0.0    0.0       0.211   72.5       0  01:39    2300.00
  
  
  ***********************
  Outfall Loading Summary
  ***********************
  
  -----------------------------------------------------------
                         Flow       Avg       Max       Total
                         Freq      Flow      Flow      Volume
  Outfall Node           Pcnt       LPS       LPS    10^6 ltr
  -----------------------------------------------------------
  CC-1                  53.70    683.00    683.00       3.990
  CC-2                  57.50    683.00    683.00       4.201
  JK-1                   0.35   1000.00   1000.00       0.062
  JK-2                  29.44   1000.00   1000.00       3.290
  WSC                   99.95    149.26    430.99       2.649
  -----------------------------------------------------------
  System                48.19   3515.26   3366.23      14.192
  
  
  ********************
  Link Flow Summary
  ********************
  
  -----------------------------------------------------------------------------
                                 Maximum  Time of Max   Maximum    Max/    Max/
                                  |Flow|   Occurrence   |Veloc|    Full    Full
  Link                 Type          LPS  days hr:min     m/sec    Flow   Depth
  -----------------------------------------------------------------------------
  1                    CONDUIT    430.99     0  02:25      2.63    0.15    0.26
  WS02003060WS02003069 CONDUIT    429.49     0  02:15      1.55    0.17    0.29
  WS02003066WSF200     CONDUIT    412.78     0  02:14      2.67    0.07    0.19
  WS02003067WS02003066 CONDUIT    412.83     0  02:14      1.04    0.13    0.38
  WS02003069WS02003072 CONDUIT    429.24     0  02:24      1.26    0.21    0.34
  WS02003072WS02003073 CONDUIT    429.20     0  02:24      1.31    0.93    0.33
  WS02004401WS02004402 CONDUIT    430.79     0  02:11      1.04    0.52    0.80
  WS02004402WS02004403 CONDUIT    429.38     0  02:10      1.05    0.62    0.82
  WS02004403WS02004404 CONDUIT    433.36     0  02:12      1.05    0.31    0.88
  WS02004404WS02004405 CONDUIT    512.88     0  02:09      1.19    5.02    0.89
  WS02004405WS02004406 CONDUIT    435.58     0  02:10      1.18    0.86    0.89
  WS02004406WS02004407 CONDUIT    419.43     0  02:12      0.90    0.19    0.57
  WS02004407WS02004409 CONDUIT    418.42     0  02:12      1.35    0.15    0.42
  WS02004409WS02004410 CONDUIT    418.84     0  02:13      0.89    0.54    0.58
  WS02004410WS02004411 CONDUIT    415.66     0  02:13      0.88    0.57    0.60
  WS02004411WS02004412 CONDUIT    415.51     0  02:13      0.93    0.59    0.62
  WS02004412WS02004413 CONDUIT    413.68     0  02:14      0.97    0.28    0.70
  WS02004413WS02003067 CONDUIT    412.67     0  02:14      0.96    0.18    0.54
  WS02006109WS02006110 CONDUIT    411.70     0  02:12      0.84    0.79    0.94
  WS02006110WS02006113 CONDUIT    411.99     0  02:08      1.03    0.37    0.75
  WS02006111WS02006112 CONDUIT    414.36     0  02:11      1.85    0.20    0.65
  WS02006112WS02006115 CONDUIT    432.71     0  02:11      0.68    0.26    0.81
  WS02006113WS02006111 CONDUIT    422.82     0  02:07      2.24    0.51    0.40
  WS02006115WS02006116 CONDUIT    437.58     0  02:11      1.11    0.56    0.68
  WS02006116WS02004401 CONDUIT    426.21     0  02:10      1.06    0.59    0.76
  WS02006228WS02006109 CONDUIT    410.46     0  02:12      1.07    1.79    1.00
  WS02006229WS02006228 CONDUIT    410.45     0  02:12      1.11    1.36    1.00
  WS02006230WS02006229 CONDUIT    410.44     0  02:09      1.23    9.13    1.00
  WS02006231WS02006230 CONDUIT    400.13     0  02:12      1.38    6.07    0.77
  WS02006232WS02006231 CONDUIT    400.11     0  02:10      1.12    0.84    0.92
  WS02006234WS02006232 CONDUIT    400.10     0  02:10      1.41    0.81    1.00
  WS02006235WS02006234 CONDUIT    414.90     0  01:49      1.37    4.38    0.99
  WS02006238WS02006235 CONDUIT    401.19     0  02:06      1.45    0.90    1.00
  WS02006239WS02006238 CONDUIT    400.21     0  02:20      1.10    1.28    1.00
  WS02006240WS02006239 CONDUIT    400.18     0  02:16      1.24    1.26    1.00
  WS02006242WS02006240 CONDUIT    400.34     0  02:16      1.13    1.59    1.00
  WS02006243WS02006242 CONDUIT    400.36     0  02:06      1.40    0.86    1.00
  WS02006245WS02006243 CONDUIT    400.38     0  02:16      1.45    1.18    1.00
  WS02006247WS02006245 CONDUIT    402.92     0  01:56      1.43    3.19    1.00
  WS02006248WS02006247 CONDUIT    409.39     0  01:57      1.44    0.89    1.00
  WS02006249WS02006248 CONDUIT    407.95     0  01:56      1.36    2.23    1.00
  WS02006251WS02006249 CONDUIT    459.02     0  00:00      1.99    1.32    1.00
  WS02006252WS02006251 CONDUIT    400.75     0  01:55     17.83    1.47    1.00
  WS02006256WS02006235 CONDUIT    288.91     0  00:00      4.23    3.06    1.00
  WSF200WS02003060     CONDUIT    413.34     0  02:14      1.93    0.09    0.24
  YS02001580YS02001583 CONDUIT    216.92     0  01:37      1.01    0.84    1.00
  YS02001583YS02001586 CONDUIT    235.40     0  01:37      1.08    0.36    1.00
  YS02001586YS02001590 CONDUIT    317.75     0  01:54      1.32    0.56    1.00
  YS02001590YS02001593 CONDUIT    317.70     0  01:55      1.12    1.99    1.00
  YS02001593YS02001596 CONDUIT    317.79     0  01:55      1.73    0.50    1.00
  YS02001596YS02001600 CONDUIT    317.87     0  01:54      1.19    0.62    1.00
  YS02001600YS02001601 CONDUIT    317.77     0  01:54      1.12    0.55    1.00
  YS02001601YS02001602 CONDUIT    592.63     0  01:37      2.10    2.14    1.00
  YS02001602YS02001605 CONDUIT    592.61     0  01:37      2.10   12.54    1.00
  YS02001605YS02001607 CONDUIT    592.56     0  01:37      2.10    3.25    1.00
  YS02001607YS02001610 CONDUIT    567.55     0  01:37      0.77    0.54    1.00
  YS02001610YS02001613 CONDUIT    538.74     0  01:37      0.72    0.62    1.00
  YS02001613YS02001616 CONDUIT    510.05     0  02:06      0.70    0.44    1.00
  YS02001616YS02001619 CONDUIT    509.80     0  02:06      0.67    0.89    1.00
  YS02001619YS02001622 CONDUIT    897.42     0  01:58      1.40    1.32    1.00
  YS02001622YS02001625 CONDUIT    897.66     0  01:59      1.14    0.48    1.00
  YS02001625YS02001629 CONDUIT    898.44     0  01:59      1.14    0.43    1.00
  YS02001629YS02163301 CONDUIT    904.73     0  01:59      1.15    1.11    1.00
  YS02001633YS02163601 CONDUIT   1378.82     0  01:38      1.76    1.45    1.00
  YS02001641YS02001644 CONDUIT   1377.77     0  01:38      1.75    4.45    1.00
  YS02001644YS02001647 CONDUIT   1864.89     0  01:38      2.37    1.10    1.00
  YS02001647YS02001649 CONDUIT   1873.80     0  01:38      2.39    0.99    1.00
  YS02001649YS02001757 CONDUIT   2182.51     0  01:39      2.78    1.32    1.00
  YS02001652YS02001649 CONDUIT    587.40     0  01:42      0.95    0.29    1.00
  YS02001655YS02001652 CONDUIT    588.01     0  01:42      1.71    0.29    1.00
  YS02001658YS02001655 CONDUIT    670.21     0  01:40      2.12    0.28    1.00
  YS02001661YS02001658 CONDUIT    595.25     0  01:42      2.42    0.23    0.83
  YS02001664YS02001661 CONDUIT    511.42     0  01:41      2.32    0.16    0.51
  YS02001745YS02001748 CONDUIT    490.65     0  01:41      2.30    0.19    0.59
  YS02001748YS02001751 CONDUIT    494.43     0  01:40      1.91    0.25    0.94
  YS02001751YS02001754 CONDUIT    405.43     0  01:42      1.76    0.20    1.00
  YS02001754YS02001757 CONDUIT    406.07     0  01:42      0.71    0.16    1.00
  YS02001757CaochengTiaoxuchi CONDUIT   3283.76     0  01:42      4.71    1.42    1.00
  YS02001759YS02001757 CONDUIT   1161.99     0  01:40      1.48    0.83    1.00
  YS02001762YS02001759 CONDUIT    685.81     0  01:40      0.87    0.79    1.00
  YS02001765YS02001762 CONDUIT    681.95     0  01:40      0.87    0.64    1.00
  YS02001767YS02001765 CONDUIT    683.89     0  01:40      0.90    0.86    1.00
  YS02001770YS02001767 CONDUIT    681.92     0  01:40      0.98    2.70    1.00
  YS02001774YS02001770 CONDUIT    419.28     0  01:39      0.53    0.27    1.00
  YS02001779YS02001774 CONDUIT    424.53     0  01:39      0.55    0.21    1.00
  YS02001783YS02001784 CONDUIT   1152.75     0  01:39      2.29    1.59    1.00
  YS02001784YS02001785 CONDUIT   1153.74     0  01:40      2.30    2.68    1.00
  YS02001786YS02001788 CONDUIT   1160.31     0  01:39      2.50    2.24    0.88
  YS02001788YS02001790 CONDUIT   1160.44     0  01:43      2.70    0.86    0.83
  YS02001790YS02001791 CONDUIT   1267.37     0  01:49      3.41    1.38    0.69
  YS02001791YS02001793 CONDUIT   1217.27     0  01:48      6.51    0.52    0.43
  YS02001793JiankangQianchi CONDUIT   1231.56     0  01:44      2.45    0.10    0.64
  YS02001882YS02001884 CONDUIT     74.70     0  01:37      0.14    0.09    1.00
  YS02001884YS02001887 CONDUIT    128.31     0  01:37      0.16    0.17    1.00
  YS02001887YS02001890 CONDUIT    554.27     0  01:37      0.71    0.95    1.00
  YS02001890YS02001895 CONDUIT    559.95     0  01:37      0.71    0.26    1.00
  YS02001895YS02001898 CONDUIT    549.50     0  01:38      0.70    0.95    1.00
  YS02001898YS02001901 CONDUIT    552.87     0  01:38      0.70    0.36    1.00
  YS02001901YS02001904 CONDUIT    554.19     0  01:38      0.71    0.86    1.00
  YS02001904YS02001907 CONDUIT    555.04     0  01:38      0.71    0.19    1.00
  YS02001907YS02006553 CONDUIT    787.66     0  01:55      0.88    0.93    1.00
  YS02001910YS02001907 CONDUIT   1003.30     0  01:40      1.28    0.57    1.00
  YS02001915YS02001910 CONDUIT   1003.35     0  01:40      1.28    0.50    1.00
  YS02001918YS02001915 CONDUIT    637.23     0  01:38      0.83    0.35    1.00
  YS02001920YS02001918 CONDUIT    573.74     0  01:38      0.73    0.55    1.00
  YS02001923YS02001920 CONDUIT    579.16     0  01:38      0.86    0.26    1.00
  YS02001926YS02001923 CONDUIT    762.95     0  01:39      1.20    1.09    1.00
  YS02001929YS02001926 CONDUIT    535.75     0  01:39      1.18    0.25    1.00
  YS02006553YS02006556 CONDUIT    787.16     0  01:53      1.00    0.67    1.00
  YS02006556YS02006558 CONDUIT    788.30     0  01:55      1.00    0.62    1.00
  YS02006558YS02006561 CONDUIT   1177.94     0  01:38      4.17    2.60    1.00
  YS02006561YS02001783 CONDUIT   1152.69     0  01:40      2.29    0.60    1.00
  YS02163301YS02001633 CONDUIT    906.04     0  01:59      1.15    0.85    1.00
  YS02163601YS02164001 CONDUIT   1378.85     0  01:38      1.76    1.22    1.00
  YS02164001YS02001641 CONDUIT   1377.92     0  01:38      1.75    1.88    1.00
  CC-R1                PUMP       683.00     0  00:00              1.00
  CC-R2                PUMP       683.00     0  00:00              1.00
  CC-S1                PUMP       200.00     0  00:00              1.00
  CC-S2                PUMP       200.00     0  00:00              1.00
  JK-R1                PUMP      1000.00     0  00:00              1.00
  JK-R2                PUMP      1000.00     0  00:00              1.00
  JK-S                 PUMP       300.00     0  00:00              1.00
  
  
  ***************************
  Flow Classification Summary
  ***************************
  
  -------------------------------------------------------------------------------------
                      Adjusted    ---------- Fraction of Time in Flow Class ---------- 
                       /Actual         Up    Down  Sub   Sup   Up    Down  Norm  Inlet 
  Conduit               Length    Dry  Dry   Dry   Crit  Crit  Crit  Crit  Ltd   Ctrl  
  -------------------------------------------------------------------------------------
  1                       1.00   0.00  0.00  0.00  0.00  1.00  0.00  0.00  0.53  0.00
  WS02003060WS02003069    1.00   0.00  0.00  0.00  0.97  0.03  0.00  0.00  0.88  0.00
  WS02003066WSF200        1.00   0.06  0.00  0.00  0.00  0.94  0.00  0.00  0.93  0.00
  WS02003067WS02003066    1.00   0.05  0.00  0.00  0.94  0.00  0.00  0.00  0.00  0.00
  WS02003069WS02003072    1.00   0.00  0.00  0.00  0.99  0.01  0.00  0.00  0.90  0.00
  WS02003072WS02003073    1.00   0.00  0.00  0.00  0.00  0.00  0.00  1.00  0.00  0.00
  WS02004401WS02004402    1.00   0.02  0.00  0.00  0.98  0.00  0.00  0.00  0.00  0.00
  WS02004402WS02004403    1.00   0.02  0.00  0.00  0.97  0.00  0.00  0.00  0.00  0.00
  WS02004403WS02004404    1.00   0.00  0.03  0.00  0.97  0.00  0.00  0.00  0.00  0.00
  WS02004404WS02004405    1.00   0.00  0.00  0.00  1.00  0.00  0.00  0.00  0.01  0.00
  WS02004405WS02004406    1.00   0.00  0.00  0.00  1.00  0.00  0.00  0.00  0.00  0.00
  WS02004406WS02004407    1.00   0.00  0.04  0.00  0.96  0.00  0.00  0.00  0.00  0.00
  WS02004407WS02004409    1.00   0.04  0.00  0.00  0.95  0.01  0.00  0.00  0.95  0.00
  WS02004409WS02004410    1.00   0.04  0.00  0.00  0.96  0.00  0.00  0.00  0.00  0.00
  WS02004410WS02004411    1.00   0.04  0.00  0.00  0.96  0.00  0.00  0.00  0.00  0.00
  WS02004411WS02004412    1.00   0.04  0.00  0.00  0.96  0.00  0.00  0.00  0.00  0.00
  WS02004412WS02004413    1.00   0.04  0.00  0.00  0.95  0.00  0.00  0.00  0.00  0.00
  WS02004413WS02003067    1.00   0.04  0.01  0.00  0.00  0.00  0.95  0.00  0.00  0.00
  WS02006109WS02006110    1.00   0.00  0.01  0.00  0.98  0.00  0.01  0.00  0.00  0.00
  WS02006110WS02006113    1.00   0.01  0.01  0.00  0.98  0.00  0.00  0.00  0.00  0.00
  WS02006111WS02006112    1.00   0.02  0.00  0.00  0.98  0.00  0.00  0.00  0.98  0.00
  WS02006112WS02006115    1.00   0.02  0.00  0.00  0.97  0.00  0.00  0.00  0.00  0.00
  WS02006113WS02006111    1.00   0.02  0.00  0.00  0.00  0.98  0.00  0.00  0.07  0.00
  WS02006115WS02006116    1.00   0.02  0.00  0.00  0.97  0.00  0.00  0.01  0.00  0.00
  WS02006116WS02004401    1.00   0.02  0.00  0.00  0.98  0.00  0.00  0.00  0.00  0.00
  WS02006228WS02006109    1.00   0.00  0.00  0.00  1.00  0.00  0.00  0.00  0.00  0.00
  WS02006229WS02006228    1.00   0.00  0.00  0.00  0.99  0.00  0.00  0.01  0.00  0.00
  WS02006230WS02006229    1.00   0.00  0.00  0.00  0.99  0.00  0.00  0.01  0.01  0.00
  WS02006231WS02006230    1.00   0.00  0.00  0.00  0.09  0.00  0.91  0.00  0.00  0.00
  WS02006232WS02006231    1.00   0.00  0.00  0.00  0.99  0.00  0.01  0.00  0.00  0.00
  WS02006234WS02006232    1.00   0.00  0.00  0.00  1.00  0.00  0.00  0.00  0.28  0.00
  WS02006235WS02006234    1.00   0.00  0.00  0.00  0.55  0.00  0.45  0.00  0.00  0.00
  WS02006238WS02006235    1.00   0.00  0.00  0.00  1.00  0.00  0.00  0.00  0.00  0.00
  WS02006239WS02006238    1.00   0.00  0.00  0.00  1.00  0.00  0.00  0.00  0.39  0.00
  WS02006240WS02006239    1.00   0.00  0.00  0.00  0.36  0.00  0.00  0.64  0.01  0.00
  WS02006242WS02006240    1.00   0.00  0.00  0.00  0.99  0.00  0.01  0.00  0.00  0.00
  WS02006243WS02006242    1.00   0.00  0.00  0.00  0.99  0.00  0.00  0.00  0.75  0.00
  WS02006245WS02006243    1.00   0.00  0.00  0.00  0.69  0.00  0.00  0.31  0.00  0.00
  WS02006247WS02006245    1.00   0.00  0.00  0.00  0.98  0.00  0.00  0.02  0.00  0.00
  WS02006248WS02006247    1.00   0.00  0.00  0.00  0.99  0.00  0.00  0.01  0.64  0.00
  WS02006249WS02006248    1.00   0.00  0.00  0.00  0.31  0.00  0.69  0.00  0.00  0.00
  WS02006251WS02006249    1.00   0.00  0.00  0.00  0.99  0.01  0.00  0.00  0.67  0.00
  WS02006252WS02006251    1.00   0.00  0.66  0.00  0.00  0.00  0.34  0.00  0.00  0.00
  WS02006256WS02006235    1.00   0.00  0.00  0.00  1.00  0.00  0.00  0.00  0.00  0.00
  WSF200WS02003060        1.00   0.00  0.06  0.00  0.61  0.33  0.00  0.00  0.78  0.00
  YS02001580YS02001583    1.00   0.20  0.63  0.00  0.17  0.00  0.00  0.00  0.72  0.00
  YS02001583YS02001586    1.00   0.44  0.33  0.00  0.23  0.00  0.00  0.00  0.72  0.00
  YS02001586YS02001590    1.00   0.13  0.00  0.00  0.39  0.04  0.00  0.44  0.34  0.00
  YS02001590YS02001593    1.00   0.13  0.01  0.00  0.09  0.00  0.77  0.00  0.00  0.00
  YS02001593YS02001596    1.00   0.14  0.00  0.00  0.11  0.01  0.00  0.75  0.02  0.00
  YS02001596YS02001600    1.00   0.14  0.00  0.00  0.18  0.01  0.00  0.66  0.06  0.00
  YS02001600YS02001601    1.00   0.13  0.01  0.00  0.86  0.00  0.00  0.00  0.62  0.00
  YS02001601YS02001602    1.00   0.13  0.01  0.00  0.86  0.00  0.00  0.00  0.00  0.00
  YS02001602YS02001605    1.00   0.14  0.00  0.00  0.86  0.00  0.00  0.00  0.00  0.00
  YS02001605YS02001607    1.00   0.14  0.00  0.00  0.86  0.00  0.00  0.00  0.00  0.00
  YS02001607YS02001610    1.00   0.13  0.01  0.00  0.86  0.00  0.00  0.00  0.02  0.00
  YS02001610YS02001613    1.00   0.13  0.00  0.00  0.87  0.00  0.00  0.00  0.01  0.00
  YS02001613YS02001616    1.00   0.13  0.00  0.00  0.87  0.00  0.00  0.00  0.00  0.00
  YS02001616YS02001619    1.00   0.13  0.00  0.00  0.87  0.00  0.00  0.00  0.00  0.00
  YS02001619YS02001622    1.00   0.13  0.00  0.00  0.87  0.00  0.00  0.00  0.30  0.00
  YS02001622YS02001625    1.00   0.13  0.00  0.00  0.87  0.00  0.00  0.00  0.05  0.00
  YS02001625YS02001629    1.00   0.13  0.05  0.00  0.13  0.00  0.69  0.00  0.00  0.00
  YS02001629YS02163301    1.00   0.16  0.01  0.00  0.83  0.00  0.00  0.00  0.00  0.00
  YS02001633YS02163601    1.00   0.00  0.01  0.00  0.99  0.00  0.00  0.00  0.15  0.00
  YS02001641YS02001644    1.00   0.00  0.01  0.00  0.99  0.00  0.00  0.00  0.00  0.00
  YS02001644YS02001647    1.00   0.00  0.17  0.00  0.83  0.00  0.00  0.00  0.00  0.00
  YS02001647YS02001649    1.00   0.00  0.17  0.00  0.48  0.35  0.00  0.00  0.58  0.00
  YS02001649YS02001757    1.00   0.00  0.00  0.00  0.63  0.37  0.00  0.00  0.58  0.00
  YS02001652YS02001649    1.00   0.00  0.00  0.00  0.97  0.03  0.00  0.00  0.75  0.00
  YS02001655YS02001652    1.00   0.00  0.00  0.00  0.15  0.02  0.00  0.83  0.09  0.00
  YS02001658YS02001655    1.00   0.00  0.14  0.00  0.61  0.25  0.00  0.00  0.76  0.00
  YS02001661YS02001658    1.00   0.14  0.00  0.00  0.45  0.41  0.00  0.00  0.77  0.00
  YS02001664YS02001661    1.00   0.13  0.00  0.00  0.75  0.12  0.00  0.00  0.86  0.00
  YS02001745YS02001748    1.00   0.00  0.00  0.00  0.03  0.02  0.00  0.96  0.03  0.00
  YS02001748YS02001751    1.00   0.00  0.00  0.00  0.77  0.23  0.00  0.00  0.83  0.00
  YS02001751YS02001754    1.00   0.00  0.00  0.00  0.09  0.01  0.00  0.90  0.03  0.00
  YS02001754YS02001757    1.00   0.00  0.00  0.00  1.00  0.00  0.00  0.00  0.89  0.00
  YS02001757CaochengTiaoxuchi    1.00   0.00  0.00  0.00  0.97  0.03  0.00  0.00  0.89  0.00
  YS02001759YS02001757    1.00   0.00  0.00  0.00  1.00  0.00  0.00  0.00  0.63  0.00
  YS02001762YS02001759    1.00   0.00  0.00  0.00  1.00  0.00  0.00  0.00  0.04  0.00
  YS02001765YS02001762    1.00   0.00  0.00  0.00  1.00  0.00  0.00  0.00  0.76  0.00
  YS02001767YS02001765    1.00   0.00  0.00  0.00  1.00  0.00  0.00  0.00  0.00  0.00
  YS02001770YS02001767    1.00   0.00  0.00  0.00  1.00  0.00  0.00  0.00  0.00  0.00
  YS02001774YS02001770    1.00   0.00  0.13  0.00  0.69  0.00  0.18  0.00  0.03  0.00
  YS02001779YS02001774    1.00   0.00  0.00  0.00  1.00  0.00  0.00  0.00  0.80  0.00
  YS02001783YS02001784    1.00   0.00  0.18  0.00  0.82  0.00  0.00  0.00  0.57  0.00
  YS02001784YS02001785    1.00   0.00  0.00  0.00  1.00  0.00  0.00  0.00  0.17  0.00
  YS02001786YS02001788    1.00   0.00  0.00  0.00  0.79  0.21  0.00  0.00  0.00  0.00
  YS02001788YS02001790    1.00   0.00  0.00  0.00  0.19  0.81  0.00  0.00  0.84  0.00
  YS02001790YS02001791    1.00   0.00  0.00  0.00  0.01  0.99  0.00  0.00  0.16  0.00
  YS02001791YS02001793    1.00   0.00  0.00  0.00  0.00  1.00  0.00  0.00  0.00  0.00
  YS02001793JiankangQianchi    1.00   0.00  0.00  0.00  0.99  0.01  0.00  0.00  0.96  0.00
  YS02001882YS02001884    1.00   0.16  0.01  0.00  0.84  0.00  0.00  0.00  0.00  0.00
  YS02001884YS02001887    1.00   0.06  0.05  0.00  0.89  0.00  0.00  0.00  0.00  0.00
  YS02001887YS02001890    1.00   0.00  0.00  0.00  0.97  0.00  0.03  0.00  0.00  0.00
  YS02001890YS02001895    1.00   0.00  0.16  0.00  0.83  0.00  0.00  0.00  0.00  0.00
  YS02001895YS02001898    1.00   0.17  0.00  0.00  0.82  0.00  0.01  0.00  0.00  0.00
  YS02001898YS02001901    1.00   0.17  0.00  0.00  0.83  0.00  0.00  0.00  0.01  0.00
  YS02001901YS02001904    1.00   0.17  0.00  0.00  0.83  0.00  0.00  0.00  0.00  0.00
  YS02001904YS02001907    1.00   0.00  0.17  0.00  0.83  0.00  0.00  0.00  0.00  0.00
  YS02001907YS02006553    1.00   0.00  0.02  0.00  0.98  0.00  0.00  0.00  0.00  0.00
  YS02001910YS02001907    1.00   0.00  0.00  0.00  0.97  0.00  0.00  0.03  0.12  0.00
  YS02001915YS02001910    1.00   0.00  0.00  0.00  0.96  0.04  0.00  0.00  0.16  0.00
  YS02001918YS02001915    1.00   0.00  0.01  0.00  0.98  0.02  0.00  0.00  0.77  0.00
  YS02001920YS02001918    1.00   0.00  0.01  0.00  0.99  0.00  0.00  0.00  0.00  0.00
  YS02001923YS02001920    1.00   0.00  0.00  0.00  1.00  0.00  0.00  0.00  0.94  0.00
  YS02001926YS02001923    1.00   0.00  0.07  0.00  0.05  0.00  0.88  0.00  0.00  0.00
  YS02001929YS02001926    1.00   0.00  0.13  0.00  0.87  0.00  0.00  0.00  0.83  0.00
  YS02006553YS02006556    1.00   0.01  0.00  0.00  0.99  0.00  0.00  0.00  0.03  0.00
  YS02006556YS02006558    1.00   0.00  0.00  0.00  1.00  0.00  0.00  0.00  0.00  0.00
  YS02006558YS02006561    1.00   0.18  0.00  0.00  0.04  0.78  0.00  0.00  0.20  0.00
  YS02006561YS02001783    1.00   0.18  0.00  0.00  0.07  0.75  0.00  0.00  0.71  0.00
  YS02163301YS02001633    1.00   0.00  0.16  0.00  0.84  0.00  0.00  0.00  0.00  0.00
  YS02163601YS02164001    1.00   0.00  0.08  0.00  0.92  0.00  0.00  0.00  0.00  0.00
  YS02164001YS02001641    1.00   0.01  0.07  0.00  0.92  0.00  0.00  0.00  0.06  0.00
  
  
  *************************
  Conduit Surcharge Summary
  *************************
  
  ----------------------------------------------------------------------------
                                                           Hours        Hours 
                         --------- Hours Full --------   Above Full   Capacity
  Conduit                Both Ends  Upstream  Dnstream   Normal Flow   Limited
  ----------------------------------------------------------------------------
  WS02004404WS02004405        0.01      0.01      0.01      1.66         0.01
  WS02006109WS02006110        0.01      0.01      0.58      0.01         0.01
  WS02006110WS02006113        0.01      0.01      0.54      0.01         0.01
  WS02006111WS02006112        0.01      0.01      0.82      0.01         0.01
  WS02006228WS02006109        0.52      0.58      0.52      1.01         0.52
  WS02006229WS02006228        0.51      0.52      0.51      0.79         0.51
  WS02006230WS02006229        0.67      0.76      0.67      2.11         0.67
  WS02006231WS02006230        0.01      0.01      0.01      1.78         0.01
  WS02006232WS02006231        0.01      0.01      0.59      0.01         0.01
  WS02006234WS02006232        0.48      0.48      0.59      0.01         0.01
  WS02006235WS02006234        0.01      0.01      0.52      1.66         0.01
  WS02006238WS02006235        0.53      0.53      0.59      0.01         0.01
  WS02006239WS02006238        0.54      0.56      0.55      0.64         0.54
  WS02006240WS02006239        0.53      0.54      0.53      0.64         0.53
  WS02006242WS02006240        0.53      0.53      0.61      0.72         0.01
  WS02006243WS02006242        0.55      0.55      0.60      0.01         0.01
  WS02006245WS02006243        0.54      0.55      0.54      0.64         0.53
  WS02006247WS02006245        0.54      0.57      0.54      1.60         0.54
  WS02006248WS02006247        0.55      0.55      0.56      0.01         0.01
  WS02006249WS02006248        0.54      0.54      0.56      1.56         0.01
  WS02006251WS02006249        0.56      0.56      0.56      0.68         0.55
  WS02006252WS02006251        0.69      0.69      0.75      0.69         0.01
  WS02006256WS02006235        1.71      1.72      5.24      0.20         0.01
  YS02001580YS02001583        0.43      0.43      0.48      0.01         0.01
  YS02001583YS02001586        0.43      0.43      0.57      0.01         0.01
  YS02001586YS02001590        0.57      0.57      0.64      0.01         0.01
  YS02001590YS02001593        0.64      0.64      0.65      0.70         0.01
  YS02001593YS02001596        0.64      0.64      0.73      0.01         0.01
  YS02001596YS02001600        0.76      0.76      0.87      0.01         0.01
  YS02001600YS02001601        0.93      0.93      1.26      0.01         0.01
  YS02001601YS02001602        1.12      1.12      1.31      0.89         0.01
  YS02001602YS02001605        1.06      1.06      1.12      2.05         0.01
  YS02001605YS02001607        1.01      1.06      1.01      1.20         1.01
  YS02001607YS02001610        0.56      0.56      0.59      0.01         0.01
  YS02001610YS02001613        0.55      0.55      0.59      0.01         0.01
  YS02001613YS02001616        0.51      0.51      0.55      0.01         0.01
  YS02001616YS02001619        0.50      0.50      0.51      0.01         0.01
  YS02001619YS02001622        0.49      0.50      0.49      0.68         0.49
  YS02001622YS02001625        0.49      0.49      0.68      0.01         0.01
  YS02001625YS02001629        0.40      0.40      0.68      0.01         0.01
  YS02001629YS02163301        0.66      0.66      0.67      0.33         0.33
  YS02001633YS02163601        0.68      0.68      0.71      0.51         0.50
  YS02001641YS02001644        0.53      0.58      0.53      1.38         0.53
  YS02001644YS02001647        0.32      0.32      0.53      0.03         0.01
  YS02001647YS02001649        0.32      0.32      0.38      0.01         0.01
  YS02001649YS02001757        0.38      0.38      0.38      0.36         0.33
  YS02001652YS02001649        0.24      0.24      0.38      0.01         0.01
  YS02001655YS02001652        0.10      0.10      0.20      0.01         0.01
  YS02001658YS02001655        0.01      0.01      0.10      0.01         0.01
  YS02001661YS02001658        0.01      0.01      0.01      0.01         0.01
  YS02001748YS02001751        0.01      0.01      0.02      0.01         0.01
  YS02001751YS02001754        0.02      0.02      0.10      0.01         0.01
  YS02001754YS02001757        0.14      0.14      0.38      0.01         0.01
  YS02001757CaochengTiaoxuchi        0.14      0.38      0.59      0.35         0.09
  YS02001759YS02001757        0.30      0.30      0.38      0.01         0.01
  YS02001762YS02001759        0.28      0.28      0.30      0.01         0.01
  YS02001765YS02001762        0.23      0.23      0.28      0.01         0.01
  YS02001767YS02001765        0.21      0.21      0.23      0.01         0.01
  YS02001770YS02001767        0.21      0.22      0.21      0.48         0.20
  YS02001774YS02001770        0.20      0.20      0.28      0.01         0.01
  YS02001779YS02001774        0.13      0.13      0.28      0.01         0.01
  YS02001783YS02001784        0.41      0.43      0.41      0.55         0.41
  YS02001784YS02001785        0.31      0.41      0.31      0.74         0.31
  YS02001786YS02001788        0.01      0.31      0.01      0.64         0.01
  YS02001790YS02001791        0.01      0.01      0.01      0.39         0.01
  YS02001793JiankangQianchi        0.01      0.01      7.43      0.01         0.01
  YS02001882YS02001884        0.38      0.38      0.39      0.01         0.01
  YS02001884YS02001887        0.41      0.41      0.42      0.01         0.01
  YS02001887YS02001890        0.43      0.43      0.44      0.01         0.01
  YS02001890YS02001895        0.37      0.37      0.46      0.01         0.01
  YS02001895YS02001898        0.36      0.36      0.37      0.01         0.01
  YS02001898YS02001901        0.37      0.37      0.41      0.01         0.01
  YS02001901YS02001904        0.40      0.40      0.41      0.01         0.01
  YS02001904YS02001907        0.40      0.40      0.61      0.01         0.01
  YS02001907YS02006553        0.76      0.76      0.82      0.01         0.01
  YS02001910YS02001907        0.46      0.46      0.60      0.01         0.01
  YS02001915YS02001910        0.38      0.38      0.46      0.01         0.01
  YS02001918YS02001915        0.29      0.29      0.38      0.01         0.01
  YS02001920YS02001918        0.29      0.29      0.31      0.01         0.01
  YS02001923YS02001920        0.25      0.25      0.31      0.01         0.01
  YS02001926YS02001923        0.01      0.01      0.01      0.01         0.01
  YS02001929YS02001926        0.01      0.01      0.01      0.01         0.01
  YS02006553YS02006556        0.53      0.53      0.61      0.01         0.01
  YS02006556YS02006558        0.57      0.57      0.63      0.01         0.01
  YS02006558YS02006561        0.33      0.52      0.33      0.70         0.33
  YS02006561YS02001783        0.26      0.26      0.43      0.01         0.01
  YS02163301YS02001633        0.67      0.67      0.70      0.01         0.01
  YS02163601YS02164001        0.60      0.60      0.71      0.26         0.01
  YS02164001YS02001641        0.58      0.60      0.58      0.76         0.57
  
  
  ***************
  Pumping Summary
  ***************
  
  ---------------------------------------------------------------------------------------------------------
                                                  Min       Avg       Max     Total     Power    % Time Off
                        Percent   Number of      Flow      Flow      Flow    Volume     Usage    Pump Curve
  Pump                 Utilized   Start-Ups       LPS       LPS       LPS  10^6 ltr     Kw-hr    Low   High
  ---------------------------------------------------------------------------------------------------------
  CC-R1                   20.63          45      0.00    683.00    683.00     4.057     70.11    0.0   64.3
  CC-R2                   21.70          48      0.00    683.00    683.00     4.269     73.60    0.0   66.1
  CC-S1                   22.72          46      0.00    200.00    200.00     1.309      8.42    0.0    0.0
  CC-S2                    8.65           2      0.00    200.00    200.00     0.498      3.08    0.0    0.0
  JK-R1                    0.21           2      0.00   1000.00   1000.00     0.061      0.55    0.0    0.0
  JK-R2                   11.67          53      0.00   1000.00   1000.00     3.360     31.53    0.0    0.0
  JK-S                     2.46           6      0.00    300.00    300.00     0.212      2.87    0.0    0.0
  

  Analysis begun on:  Mon Feb 24 09:46:42 2025
  Analysis ended on:  Mon Feb 24 09:46:44 2025
  Total elapsed time: 00:00:02