
  EPA STORM WATER MANAGEMENT MODEL - VERSION 5.2 (Build 5.2.4)
  PYSWMM TOOLKIT API - VERSION v1.0 (2023-11-27)
  ------------------------------------------------------------

  WARNING 04: minimum elevation drop used for Conduit WS02004404WS02004405
  WARNING 03: negative offset ignored for Link YS02001904YS02001907
  
  ****************
  Analysis Options
  ****************
  Flow Units ............... LPS
  Process Models:
    Rainfall/Runoff ........ YES
    RDII ................... NO
    Snowmelt ............... NO
    Groundwater ............ NO
    Flow Routing ........... YES
    Ponding Allowed ........ NO
    Water Quality .......... NO
  Infiltration Method ...... HORTON
  Flow Routing Method ...... DYNWAVE
  Surcharge Method ......... EXTRAN
  Starting Date ............ 08/28/2015 08:00:00
  Ending Date .............. 08/28/2015 16:00:00
  Antecedent Dry Days ...... 8.0
  Report Time Step ......... 00:01:00
  Wet Time Step ............ 00:01:00
  Dry Time Step ............ 00:01:00
  Routing Time Step ........ 30.00 sec
  Variable Time Step ....... YES
  Maximum Trials ........... 8
  Number of Threads ........ 4
  Head Tolerance ........... 0.001500 m
  
  
  **************************        Volume         Depth
  Runoff Quantity Continuity     hectare-m            mm
  **************************     ---------       -------
  Total Precipitation ......         2.618        78.936
  Evaporation Loss .........         0.000         0.000
  Infiltration Loss ........         0.102         3.068
  Surface Runoff ...........         2.484        74.890
  Final Storage ............         0.033         0.995
  Continuity Error (%) .....        -0.022
  
  
  **************************        Volume        Volume
  Flow Routing Continuity        hectare-m      10^6 ltr
  **************************     ---------     ---------
  Dry Weather Inflow .......         0.025         0.251
  Wet Weather Inflow .......         2.485        24.849
  Groundwater Inflow .......         0.000         0.000
  RDII Inflow ..............         0.000         0.000
  External Inflow ..........         0.083         0.834
  External Outflow .........         1.878        18.777
  Flooding Loss ............         0.786         7.855
  Evaporation Loss .........         0.000         0.000
  Exfiltration Loss ........         0.000         0.000
  Initial Stored Volume ....         0.243         2.431
  Final Stored Volume ......         0.181         1.809
  Continuity Error (%) .....        -0.271
  
  
  *************************
  Highest Continuity Errors
  *************************
  Node YS02001583 (-5.42%)
  Node YS02001884 (4.98%)
  Node WS02006256 (-1.77%)
  
  
  ***************************
  Time-Step Critical Elements
  ***************************
  Link WS02006252WS02006251 (35.13%)
  Link WS02004404WS02004405 (23.42%)
  Link YS02001791YS02001793 (7.87%)
  Link WS02006238WS02006235 (7.86%)
  Link WS02006235WS02006234 (7.16%)
  
  
  ********************************
  Highest Flow Instability Indexes
  ********************************
  Link WS02006113WS02006111 (35)
  Link WS02006111WS02006112 (18)
  Link YS02006558YS02006561 (14)
  Link YS02001602YS02001605 (14)
  Link WS02006256WS02006235 (14)
  
  
  *********************************
  Most Frequent Nonconverging Nodes
  *********************************
  Node CC-1 (14.85%)
  Node CC-2 (14.85%)
  Node JK-1 (14.85%)
  Node JK-2 (14.85%)
  Node WSC (14.85%)
  
  
  *************************
  Routing Time Step Summary
  *************************
  Minimum Time Step           :     0.01 sec
  Average Time Step           :     2.74 sec
  Maximum Time Step           :     8.35 sec
  % of Time in Steady State   :     0.00
  Average Iterations per Step :     3.30
  % of Steps Not Converging   :    14.85
  Time Step Frequencies       :
     30.000 - 13.228 sec      :     0.00 %
     13.228 -  5.833 sec      :    21.19 %
      5.833 -  2.572 sec      :    21.52 %
      2.572 -  1.134 sec      :    17.30 %
      1.134 -  0.500 sec      :    39.99 %
  
  
  ***************************
  Subcatchment Runoff Summary
  ***************************
  
  ------------------------------------------------------------------------------------------------------------------------------
                            Total      Total      Total      Total     Imperv       Perv      Total       Total     Peak  Runoff
                           Precip      Runon       Evap      Infil     Runoff     Runoff     Runoff      Runoff   Runoff   Coeff
  Subcatchment                 mm         mm         mm         mm         mm         mm         mm    10^6 ltr      LPS
  ------------------------------------------------------------------------------------------------------------------------------
  sub60                     78.94       0.00       0.00       1.85      68.26       7.62      75.89        1.00   636.29   0.961
  sub61                     78.94       0.00       0.00       2.69      64.39      10.74      75.13        1.38   882.47   0.952
  sub62                     78.94       0.00       0.00       1.24      71.34       5.08      76.42        2.09  1237.12   0.968
  sub63                     78.94       0.00       0.00       4.94      55.08      17.96      73.04        1.66   983.88   0.925
  sub64                     78.94       0.00       0.00       2.50      65.89       9.35      75.24        1.81  1011.46   0.953
  sub65                     78.94       0.00       0.00       2.16      67.42       8.10      75.53        2.08  1129.31   0.957
  sub66                     78.94       0.00       0.00       6.07      54.97      16.82      71.79        3.35  1478.92   0.909
  sub67                     78.94       0.00       0.00       1.19      71.38       5.13      76.51        1.42   953.79   0.969
  sub68                     78.94       0.00       0.00       2.22      66.70       8.83      75.53        2.08  1268.46   0.957
  sub69                     78.94       0.00       0.00       1.99      66.99       9.86      76.84        2.84  1502.91   0.973
  sub70                     78.94       0.00       0.00       6.57      51.93      20.27      72.21        2.09   832.63   0.915
  sub71                     78.94       0.00       0.00       1.27      71.30       5.05      76.35        2.00  1094.05   0.967
  sub72                     78.94       0.00       0.00       1.13      72.01       4.40      76.41        1.05   529.80   0.968
  
  
  ******************
  Node Depth Summary
  ******************
  
  ---------------------------------------------------------------------------------
                                 Average  Maximum  Maximum  Time of Max    Reported
                                   Depth    Depth      HGL   Occurrence   Max Depth
  Node                 Type       Meters   Meters   Meters  days hr:min      Meters
  ---------------------------------------------------------------------------------
  WS02003060           JUNCTION     0.19     0.37     5.30     0  02:18        0.37
  WS02003066           JUNCTION     0.16     0.29     5.84     0  02:18        0.29
  WS02003067           JUNCTION     0.44     0.69     6.01     0  02:18        0.69
  WS02003069           JUNCTION     0.21     0.41     5.00     0  02:19        0.41
  WS02003072           JUNCTION     0.27     0.48     4.85     0  02:20        0.48
  WS02003073           JUNCTION     0.15     0.29     4.35     0  02:21        0.28
  WS02004401           JUNCTION     0.52     0.83     6.83     0  02:16        0.83
  WS02004402           JUNCTION     0.55     0.86     6.82     0  02:16        0.85
  WS02004403           JUNCTION     0.57     0.88     6.81     0  02:16        0.87
  WS02004404           JUNCTION     0.65     0.95     6.80     0  02:16        0.94
  WS02004405           JUNCTION     0.65     0.94     6.79     0  02:16        0.93
  WS02004406           JUNCTION     0.66     0.94     6.77     0  02:16        0.94
  WS02004407           JUNCTION     0.14     0.29     6.60     0  02:17        0.29
  WS02004409           JUNCTION     0.31     0.64     6.41     0  02:17        0.64
  WS02004410           JUNCTION     0.34     0.65     6.37     0  02:17        0.65
  WS02004411           JUNCTION     0.36     0.66     6.34     0  02:18        0.66
  WS02004412           JUNCTION     0.39     0.67     6.31     0  02:18        0.67
  WS02004413           JUNCTION     0.55     0.83     6.30     0  02:18        0.83
  WS02006109           JUNCTION     0.56     1.13     7.74     0  02:13        0.98
  WS02006110           JUNCTION     0.58     1.17     7.76     0  02:13        0.92
  WS02006111           JUNCTION     0.14     0.29     6.99     0  02:05        0.28
  WS02006112           JUNCTION     0.66     1.05     6.94     0  02:14        1.00
  WS02006113           JUNCTION     0.22     0.46     7.35     0  02:05        0.46
  WS02006115           JUNCTION     0.40     0.72     6.86     0  02:15        0.72
  WS02006116           JUNCTION     0.48     0.80     6.84     0  02:15        0.80
  WS02006228           JUNCTION     0.55     1.16     7.81     0  02:13        1.03
  WS02006229           JUNCTION     0.52     1.20     7.89     0  02:13        1.03
  WS02006230           JUNCTION     0.50     1.40     8.14     0  02:13        1.17
  WS02006231           JUNCTION     0.32     1.07     8.20     0  02:13        0.92
  WS02006232           JUNCTION     0.44     1.24     8.28     0  02:13        1.12
  WS02006234           JUNCTION     0.35     1.22     8.38     0  02:13        1.15
  WS02006235           JUNCTION     0.39     1.34     8.50     0  02:08        1.33
  WS02006238           JUNCTION     0.42     1.38     8.52     0  02:08        1.36
  WS02006239           JUNCTION     0.39     1.36     8.57     0  02:08        1.30
  WS02006240           JUNCTION     0.37     1.31     8.60     0  03:16        1.31
  WS02006242           JUNCTION     0.44     1.38     8.65     0  03:16        1.38
  WS02006243           JUNCTION     0.36     1.26     8.68     0  03:16        1.26
  WS02006245           JUNCTION     0.37     1.22     8.70     0  02:12        1.21
  WS02006247           JUNCTION     0.39     1.21     8.71     0  02:12        1.20
  WS02006248           JUNCTION     0.36     1.10     8.69     0  02:12        1.10
  WS02006249           JUNCTION     0.39     1.09     8.69     0  01:59        1.09
  WS02006251           JUNCTION     0.39     1.39     9.06     0  01:59        1.18
  WS02006252           JUNCTION     0.29     1.50     9.74     0  00:00        0.73
  WS02006256           JUNCTION     0.67     2.35     9.28     0  00:00        2.35
  WSF200               JUNCTION     0.13     0.28     5.51     0  02:18        0.28
  YS02001580           JUNCTION     0.18     1.05     9.59     0  01:42        0.78
  YS02001583           JUNCTION     0.22     1.14     9.64     0  01:42        0.82
  YS02001586           JUNCTION     0.35     1.13     9.30     0  01:42        1.13
  YS02001590           JUNCTION     0.48     1.40     9.26     0  01:40        1.37
  YS02001593           JUNCTION     0.40     1.32     9.18     0  01:42        1.28
  YS02001596           JUNCTION     0.55     1.68     9.10     0  01:42        1.65
  YS02001600           JUNCTION     0.65     1.87     9.00     0  01:42        1.86
  YS02001601           JUNCTION     0.86     2.06     8.90     0  01:40        2.06
  YS02001602           JUNCTION     0.75     1.87     8.77     0  01:42        1.87
  YS02001605           JUNCTION     0.69     1.78     8.68     0  01:42        1.78
  YS02001607           JUNCTION     0.64     1.68     8.53     0  01:42        1.68
  YS02001610           JUNCTION     0.69     1.68     8.48     0  01:42        1.68
  YS02001613           JUNCTION     0.65     1.70     8.54     0  02:22        1.70
  YS02001616           JUNCTION     0.58     1.61     8.52     0  01:42        1.61
  YS02001619           JUNCTION     0.55     1.61     8.54     0  01:42        1.61
  YS02001622           JUNCTION     0.54     1.62     8.52     0  01:42        1.62
  YS02001625           JUNCTION     0.80     1.78     8.38     0  01:42        1.78
  YS02001629           JUNCTION     0.70     1.85     8.40     0  01:42        1.85
  YS02001633           JUNCTION     0.77     2.04     8.49     0  01:46        2.02
  YS02001641           JUNCTION     0.73     1.96     8.40     0  01:46        1.95
  YS02001644           JUNCTION     0.72     1.92     8.35     0  01:46        1.92
  YS02001647           JUNCTION     0.49     1.82     8.43     0  01:47        1.76
  YS02001649           JUNCTION     0.55     2.05     8.44     0  01:47        1.99
  YS02001652           JUNCTION     0.41     2.16     8.76     0  01:47        1.87
  YS02001655           JUNCTION     0.32     2.20     9.05     0  01:47        1.71
  YS02001658           JUNCTION     0.24     2.30     9.44     0  01:47        1.50
  YS02001661           JUNCTION     0.23     2.12     9.52     0  01:47        1.33
  YS02001664           JUNCTION     0.10     0.88     8.80     0  01:48        0.88
  YS02001745           JUNCTION     0.12     2.35     9.87     0  01:47        0.85
  YS02001748           JUNCTION     0.22     2.27     9.35     0  01:47        1.27
  YS02001751           JUNCTION     0.27     2.20     9.08     0  01:46        1.44
  YS02001754           JUNCTION     0.36     2.20     8.81     0  01:46        1.67
  YS02001757           JUNCTION     0.55     2.21     8.47     0  01:47        1.98
  YS02001759           JUNCTION     0.49     2.20     8.57     0  01:47        2.00
  YS02001762           JUNCTION     0.48     2.15     8.55     0  01:47        1.98
  YS02001765           JUNCTION     0.46     2.10     8.55     0  01:45        1.94
  YS02001767           JUNCTION     0.46     2.03     8.52     0  01:45        1.92
  YS02001770           JUNCTION     0.47     1.95     8.44     0  01:45        1.95
  YS02001774           JUNCTION     0.54     2.03     8.45     0  01:46        1.99
  YS02001779           JUNCTION     0.35     1.68     8.37     0  01:45        1.68
  YS02001783           JUNCTION     0.39     1.62     7.76     0  01:45        1.23
  YS02001784           JUNCTION     0.39     1.33     7.40     0  01:45        1.12
  YS02001786           JUNCTION     0.32     1.15     7.18     0  01:45        0.87
  YS02001788           JUNCTION     0.23     0.62     6.60     0  01:47        0.62
  YS02001790           JUNCTION     0.27     0.72     6.37     0  01:58        0.71
  YS02001791           JUNCTION     0.17     0.44     5.91     0  01:47        0.43
  YS02001793           JUNCTION     0.09     0.29     5.12     0  01:57        0.29
  YS02001882           JUNCTION     0.49     1.83     8.55     0  01:43        1.67
  YS02001884           JUNCTION     0.58     1.90     8.52     0  01:43        1.77
  YS02001887           JUNCTION     0.65     1.92     8.46     0  01:43        1.85
  YS02001890           JUNCTION     0.68     1.81     8.32     0  01:43        1.81
  YS02001895           JUNCTION     0.45     1.75     8.50     0  01:43        1.63
  YS02001898           JUNCTION     0.46     1.75     8.49     0  01:43        1.67
  YS02001901           JUNCTION     0.57     1.77     8.38     0  01:43        1.76
  YS02001904           JUNCTION     0.55     1.69     8.32     0  01:43        1.69
  YS02001907           JUNCTION     0.87     1.96     8.25     0  01:45        1.96
  YS02001910           JUNCTION     0.68     2.10     8.61     0  01:43        1.95
  YS02001915           JUNCTION     0.50     2.00     8.72     0  01:43        1.89
  YS02001918           JUNCTION     0.31     1.81     8.88     0  01:44        1.81
  YS02001920           JUNCTION     0.39     2.14     9.15     0  01:45        1.82
  YS02001923           JUNCTION     0.25     2.03     9.29     0  01:45        1.53
  YS02001926           JUNCTION     0.27     1.90     9.35     0  01:45        1.36
  YS02001929           JUNCTION     0.17     1.78     9.47     0  01:45        1.15
  YS02006553           JUNCTION     0.87     2.08     8.36     0  01:45        1.98
  YS02006556           JUNCTION     0.84     2.18     8.49     0  01:45        1.97
  YS02006558           JUNCTION     0.88     2.25     8.51     0  01:45        2.03
  YS02006561           JUNCTION     0.25     1.48     8.14     0  01:45        0.90
  YS02163301           JUNCTION     0.72     1.93     8.45     0  01:46        1.92
  YS02163601           JUNCTION     0.80     2.06     8.45     0  01:46        2.03
  YS02164001           JUNCTION     0.73     1.96     8.42     0  01:46        1.94
  CC-1                 OUTFALL      0.00     0.00     0.00     0  00:00        0.00
  CC-2                 OUTFALL      0.00     0.00     0.00     0  00:00        0.00
  JK-1                 OUTFALL      0.00     0.00     0.00     0  00:00        0.00
  JK-2                 OUTFALL      0.00     0.00     0.00     0  00:00        0.00
  WSC                  OUTFALL      0.15     0.29     0.96     0  02:21        0.28
  CC-storage           STORAGE      0.77     1.55     7.05     0  02:28        1.55
  JK-storage           STORAGE      1.73     4.21     5.01     0  01:56        4.14
  
  
  *******************
  Node Inflow Summary
  *******************
  
  -------------------------------------------------------------------------------------------------
                                  Maximum  Maximum                  Lateral       Total        Flow
                                  Lateral    Total  Time of Max      Inflow      Inflow     Balance
                                   Inflow   Inflow   Occurrence      Volume      Volume       Error
  Node                 Type           LPS      LPS  days hr:min    10^6 ltr    10^6 ltr     Percent
  -------------------------------------------------------------------------------------------------
  WS02003060           JUNCTION     16.53   515.51     0  02:18       0.476        3.48       0.059
  WS02003066           JUNCTION      0.00   495.64     0  02:18           0           3       0.040
  WS02003067           JUNCTION      0.00   494.93     0  02:18           0        3.01       0.135
  WS02003069           JUNCTION      0.32   516.80     0  02:19     0.00922        3.48       0.101
  WS02003072           JUNCTION      0.00   514.76     0  02:20           0        3.48       0.182
  WS02003073           JUNCTION      1.82   513.85     0  02:20      0.0524        3.53       0.143
  WS02004401           JUNCTION      0.00   532.53     0  02:14           0         3.1       0.321
  WS02004402           JUNCTION      0.00   525.39     0  02:15           0        3.09       0.327
  WS02004403           JUNCTION      0.00   523.31     0  02:15           0        3.08       0.321
  WS02004404           JUNCTION      0.16   517.59     0  02:15     0.00467        3.08       0.268
  WS02004405           JUNCTION      0.04   515.52     0  02:15      0.0011        3.07       0.401
  WS02004406           JUNCTION      0.00   516.41     0  02:16           0        3.06       0.669
  WS02004407           JUNCTION      0.00   512.04     0  02:16           0        3.04       0.033
  WS02004409           JUNCTION      0.00   510.58     0  02:17           0        3.04       0.077
  WS02004410           JUNCTION      0.00   507.05     0  02:17           0        3.04       0.130
  WS02004411           JUNCTION      0.00   505.04     0  02:17           0        3.03       0.171
  WS02004412           JUNCTION      0.00   503.25     0  02:17           0        3.03       0.233
  WS02004413           JUNCTION      0.00   499.04     0  02:17           0        3.02       0.419
  WS02006109           JUNCTION      1.23   555.42     0  02:13      0.0354        3.15       0.344
  WS02006110           JUNCTION      0.00   555.45     0  02:13           0        3.14       0.202
  WS02006111           JUNCTION      0.00   562.08     0  02:05           0        3.13       0.025
  WS02006112           JUNCTION      0.00   541.16     0  02:05           0        3.13       0.553
  WS02006113           JUNCTION      0.00   565.53     0  02:09           0        3.13       0.049
  WS02006115           JUNCTION      0.00   548.50     0  02:15           0        3.12       0.201
  WS02006116           JUNCTION      0.00   537.83     0  02:15           0        3.11       0.178
  WS02006228           JUNCTION      0.00   553.35     0  02:13           0        3.12       0.161
  WS02006229           JUNCTION      0.00   553.99     0  02:13           0        3.13       0.116
  WS02006230           JUNCTION     10.28   580.38     0  02:08       0.296        3.13       0.168
  WS02006231           JUNCTION      0.00   574.13     0  02:08           0        2.83       0.003
  WS02006232           JUNCTION      0.00   573.32     0  02:08           0        2.84       0.159
  WS02006234           JUNCTION      0.00   568.36     0  02:08           0        2.83      -0.153
  WS02006235           JUNCTION      0.00   561.30     0  02:08           0        2.85       0.170
  WS02006238           JUNCTION      0.00   424.88     0  02:10           0        2.65      -0.135
  WS02006239           JUNCTION      0.00   423.68     0  02:10           0        2.64      -0.113
  WS02006240           JUNCTION      0.00   420.10     0  02:10           0        2.64      -0.040
  WS02006242           JUNCTION      0.00   419.84     0  02:10           0        2.63      -0.029
  WS02006243           JUNCTION      0.00   418.82     0  02:10           0        2.63      -0.145
  WS02006245           JUNCTION      0.00   418.85     0  02:10           0        2.64       0.403
  WS02006247           JUNCTION      0.00   418.47     0  02:15           0        2.64      -0.012
  WS02006248           JUNCTION      0.00   419.15     0  02:15           0        2.64      -0.113
  WS02006249           JUNCTION      0.00   459.02     0  00:00           0        2.68       0.504
  WS02006251           JUNCTION      0.08   407.34     0  01:59     0.00222        2.68       0.032
  WS02006252           JUNCTION      0.00   400.00     0  00:00           0        2.67      -0.632
  WS02006256           JUNCTION      0.00   300.00     0  00:00           0        0.28      -1.739
  WSF200               JUNCTION      0.00   496.02     0  02:18           0           3       0.014
  YS02001580           JUNCTION      0.00   131.19     0  01:42           0     0.00447       0.876
  YS02001583           JUNCTION      0.00   186.31     0  01:42           0      0.0155      -5.140
  YS02001586           JUNCTION    832.63   832.63     0  01:53        2.09         2.1       0.048
  YS02001590           JUNCTION      0.00   317.95     0  02:08           0        1.53      -0.037
  YS02001593           JUNCTION      0.00   318.09     0  02:08           0        1.54      -0.002
  YS02001596           JUNCTION      0.00   318.17     0  02:04           0        1.54      -0.013
  YS02001600           JUNCTION      0.00   318.15     0  02:08           0        1.54      -0.008
  YS02001601           JUNCTION   1502.91  1820.40     0  01:51        2.85        4.38      -0.004
  YS02001602           JUNCTION      0.00   530.30     0  01:42           0        2.55       0.009
  YS02001605           JUNCTION      0.00   530.05     0  01:42           0        2.41       0.010
  YS02001607           JUNCTION      0.00   529.81     0  01:42           0        2.41       0.077
  YS02001610           JUNCTION      0.00   832.25     0  01:53           0        2.78       0.059
  YS02001613           JUNCTION      0.00   548.45     0  01:41           0         2.2       0.068
  YS02001616           JUNCTION      0.00   557.25     0  01:41           0         2.2       0.015
  YS02001619           JUNCTION   1478.92  1478.92     0  01:53        3.35        5.17      -0.005
  YS02001622           JUNCTION      0.00   989.95     0  01:51           0        4.79      -0.010
  YS02001625           JUNCTION      0.00  1402.88     0  01:54           0        5.05       0.156
  YS02001629           JUNCTION      0.00   930.97     0  01:44           0        3.96       0.012
  YS02001633           JUNCTION   1129.51  1401.89     0  01:44        2.09         5.7       0.056
  YS02001641           JUNCTION      0.00  1401.68     0  01:44           0        5.37       0.048
  YS02001644           JUNCTION   1011.50  1842.52     0  01:45        1.81        7.17       0.038
  YS02001647           JUNCTION      0.00  1842.12     0  01:45           0        6.64       0.006
  YS02001649           JUNCTION      0.00  2160.22     0  01:45           0         8.3       0.001
  YS02001652           JUNCTION      0.00  1009.31     0  01:48           0        1.66      -0.069
  YS02001655           JUNCTION      0.15  1009.12     0  01:48     0.00443        1.66      -0.072
  YS02001658           JUNCTION      0.00  1008.76     0  01:48           0        1.66      -0.051
  YS02001661           JUNCTION      0.00  1006.09     0  01:50           0        1.66       0.011
  YS02001664           JUNCTION    983.88   983.88     0  01:50        1.66        1.66      -0.007
  YS02001745           JUNCTION    636.30   636.30     0  01:50       0.998       0.998       0.164
  YS02001748           JUNCTION      0.04   666.67     0  01:49      0.0013       0.999      -0.291
  YS02001751           JUNCTION      0.01   666.38     0  01:49    0.000317        1.01       0.059
  YS02001754           JUNCTION      0.26   666.36     0  01:49     0.00749        1.02      -0.119
  YS02001757           JUNCTION      0.00  3588.23     0  01:49           0        12.5       0.045
  YS02001759           JUNCTION    882.51  1496.92     0  01:47        1.38        3.23      -0.014
  YS02001762           JUNCTION      0.00   849.00     0  01:47           0        1.85      -0.006
  YS02001765           JUNCTION      0.00   849.15     0  01:47           0        1.85      -0.000
  YS02001767           JUNCTION      0.54   850.11     0  01:47      0.0154        1.85       0.003
  YS02001770           JUNCTION   1237.28  1237.28     0  01:51         2.1        2.14      -0.017
  YS02001774           JUNCTION      0.00   653.25     0  01:50           0       0.324       0.269
  YS02001779           JUNCTION      0.01   653.38     0  01:50    0.000144        0.28      -0.217
  YS02001783           JUNCTION      0.00  1168.49     0  01:49           0        4.65       0.005
  YS02001784           JUNCTION      1.06  1169.31     0  01:48      0.0305        4.68       0.010
  YS02001786           JUNCTION      0.06  1169.65     0  01:49     0.00162        4.68       0.014
  YS02001788           JUNCTION      0.07  1169.33     0  01:48     0.00204        4.68       0.007
  YS02001790           JUNCTION      0.15  1180.93     0  01:47     0.00446        4.69       0.024
  YS02001791           JUNCTION      0.00  1285.78     0  01:58           0        4.69      -0.023
  YS02001793           JUNCTION      0.00  1236.50     0  01:56           0        4.69       0.005
  YS02001882           JUNCTION      0.00    63.03     0  01:43           0      0.0125       4.649
  YS02001884           JUNCTION      0.00    77.73     0  01:43           0      0.0483       5.243
  YS02001887           JUNCTION    954.24   954.30     0  01:50        1.44        1.47       0.290
  YS02001890           JUNCTION      0.00   954.33     0  01:50           0        1.43       0.348
  YS02001895           JUNCTION      0.00   516.67     0  01:51           0        1.25       0.144
  YS02001898           JUNCTION      0.00   516.61     0  01:51           0        1.25      -0.007
  YS02001901           JUNCTION      0.00   516.52     0  01:51           0        1.25       0.259
  YS02001904           JUNCTION      0.00   516.47     0  01:51           0        1.26       0.213
  YS02001907           JUNCTION      0.00  2248.98     0  01:50           0         4.4       0.371
  YS02001910           JUNCTION      0.00  1627.59     0  01:50           0        3.13       0.226
  YS02001915           JUNCTION   1094.07  1627.56     0  01:50           2        3.17       0.044
  YS02001918           JUNCTION      0.00   541.01     0  01:50           0        1.21      -0.002
  YS02001920           JUNCTION      2.87   540.70     0  01:50      0.0827        1.19       0.074
  YS02001923           JUNCTION      0.04   535.61     0  01:52     0.00109        1.09      -0.111
  YS02001926           JUNCTION      0.05   680.98     0  01:45      0.0015        1.07      -0.039
  YS02001929           JUNCTION    529.80   529.80     0  01:52        1.05        1.05      -0.007
  YS02006553           JUNCTION      0.00   795.07     0  02:12           0        2.63       0.447
  YS02006556           JUNCTION      0.00   795.53     0  02:12           0        2.64       0.293
  YS02006558           JUNCTION   1269.34  1269.34     0  01:50         2.1         4.7       0.075
  YS02006561           JUNCTION      0.00  1177.37     0  01:45           0        4.65      -0.003
  YS02163301           JUNCTION      0.00   930.91     0  01:44           0        3.95       0.032
  YS02163601           JUNCTION      0.11  1402.01     0  01:44     0.00317        5.36       0.088
  YS02164001           JUNCTION      0.00  1401.90     0  01:44           0        5.36       0.038
  CC-1                 OUTFALL       0.00   683.00     0  00:00           0        5.37       0.000
  CC-2                 OUTFALL       0.00   683.00     0  00:00           0        5.37       0.000
  JK-1                 OUTFALL       0.00  1000.00     0  00:00           0       0.304       0.000
  JK-2                 OUTFALL       0.00  1000.00     0  00:00           0        4.21       0.000
  WSC                  OUTFALL       0.00   510.35     0  02:21           0        3.52       0.000
  CC-storage           STORAGE       0.00  3588.54     0  01:49           0        14.8      -0.219
  JK-storage           STORAGE       0.00  1235.54     0  01:53           0        4.84      -0.324
  
  
  **********************
  Node Surcharge Summary
  **********************
  
  Surcharging occurs when water rises above the top of the highest conduit.
  ---------------------------------------------------------------------
                                               Max. Height   Min. Depth
                                   Hours       Above Crown    Below Rim
  Node                 Type      Surcharged         Meters       Meters
  ---------------------------------------------------------------------
  WS02006109           JUNCTION        1.39          0.306        1.514
  WS02006110           JUNCTION        0.06          0.260        1.590
  WS02006112           JUNCTION        0.04          0.052        1.628
  WS02006228           JUNCTION        1.38          0.334        1.866
  WS02006229           JUNCTION        1.39          0.400        2.050
  WS02006230           JUNCTION        0.08          0.319        1.251
  WS02006231           JUNCTION        0.13          0.364        1.166
  WS02006232           JUNCTION        1.41          0.539        0.941
  WS02006234           JUNCTION        0.32          0.501        0.739
  WS02006235           JUNCTION        1.37          0.628        0.662
  WS02006238           JUNCTION        1.39          0.660        0.770
  WS02006239           JUNCTION        1.37          0.619        0.671
  WS02006240           JUNCTION        1.38          0.601        0.789
  WS02006242           JUNCTION        1.39          0.654        0.166
  WS02006243           JUNCTION        1.38          0.552        0.218
  WS02006245           JUNCTION        1.37          0.509        0.341
  WS02006247           JUNCTION        1.37          0.497        0.263
  WS02006248           JUNCTION        1.36          0.380        0.000
  WS02006249           JUNCTION        1.36          0.390        0.000
  WS02006251           JUNCTION        0.16          0.362        0.818
  WS02006252           JUNCTION        1.56          1.100        0.000
  WS02006256           JUNCTION        5.33          2.050        0.000
  YS02001580           JUNCTION        0.78          0.450        0.000
  YS02001583           JUNCTION        0.79          0.500        0.000
  YS02001586           JUNCTION        0.92          0.510        0.000
  YS02001590           JUNCTION        1.01          0.750        0.000
  YS02001593           JUNCTION        1.01          0.698        0.142
  YS02001596           JUNCTION        1.14          0.951        0.119
  YS02001600           JUNCTION        1.32          1.190        0.000
  YS02001601           JUNCTION        1.65          1.440        0.000
  YS02001602           JUNCTION        1.56          1.270        0.000
  YS02001605           JUNCTION        1.52          1.180        0.000
  YS02001607           JUNCTION        0.98          0.680        0.000
  YS02001610           JUNCTION        1.01          0.680        0.000
  YS02001613           JUNCTION        0.97          0.700        0.000
  YS02001616           JUNCTION        0.92          0.610        0.000
  YS02001619           JUNCTION        0.90          0.610        0.000
  YS02001622           JUNCTION        0.90          0.620        0.000
  YS02001625           JUNCTION        1.11          0.780        0.000
  YS02001629           JUNCTION        0.84          0.470        0.000
  YS02001633           JUNCTION        1.13          1.017        0.043
  YS02001641           JUNCTION        1.05          0.958        0.142
  YS02001644           JUNCTION        1.01          0.920        0.000
  YS02001647           JUNCTION        0.77          0.815        0.085
  YS02001649           JUNCTION        0.91          1.050        0.000
  YS02001652           JUNCTION        0.65          1.130        0.000
  YS02001655           JUNCTION        0.44          1.200        0.000
  YS02001658           JUNCTION        0.25          1.300        0.000
  YS02001661           JUNCTION        0.07          1.048        0.342
  YS02001745           JUNCTION        0.01          1.350        0.000
  YS02001748           JUNCTION        0.13          1.190        0.000
  YS02001751           JUNCTION        0.31          1.200        0.000
  YS02001754           JUNCTION        0.51          1.150        0.000
  YS02001757           JUNCTION        0.98          1.210        0.000
  YS02001759           JUNCTION        0.86          1.203        0.007
  YS02001762           JUNCTION        0.82          1.150        0.000
  YS02001765           JUNCTION        0.76          1.100        0.000
  YS02001767           JUNCTION        0.71          1.030        0.000
  YS02001770           JUNCTION        0.68          0.920        0.000
  YS02001774           JUNCTION        0.80          1.026        0.024
  YS02001779           JUNCTION        0.51          0.680        0.000
  YS02001783           JUNCTION        0.66          0.818        0.782
  YS02001784           JUNCTION        0.64          0.529        0.961
  YS02001786           JUNCTION        0.52          0.351        1.079
  YS02001882           JUNCTION        0.60          0.830        0.000
  YS02001884           JUNCTION        0.61          0.842        0.028
  YS02001887           JUNCTION        0.65          0.869        0.081
  YS02001890           JUNCTION        0.67          0.760        0.000
  YS02001895           JUNCTION        0.59          0.750        0.000
  YS02001898           JUNCTION        0.58          0.724        0.016
  YS02001901           JUNCTION        0.64          0.771        0.099
  YS02001904           JUNCTION        0.62          0.687        0.163
  YS02001907           JUNCTION        0.90          0.950        0.000
  YS02001910           JUNCTION        0.69          1.100        0.000
  YS02001915           JUNCTION        0.60          1.000        0.000
  YS02001918           JUNCTION        0.50          0.810        0.000
  YS02001920           JUNCTION        0.52          1.140        0.000
  YS02001923           JUNCTION        0.17          0.820        0.000
  YS02001926           JUNCTION        0.19          0.900        0.000
  YS02001929           JUNCTION        0.01          0.780        0.000
  YS02006553           JUNCTION        0.92          1.079        0.111
  YS02006556           JUNCTION        0.79          1.136        0.214
  YS02006558           JUNCTION        0.78          1.147        0.253
  YS02006561           JUNCTION        0.46          0.679        0.471
  YS02163301           JUNCTION        1.11          0.931        0.099
  YS02163601           JUNCTION        1.16          1.055        0.025
  YS02164001           JUNCTION        1.06          0.965        0.135
  
  
  *********************
  Node Flooding Summary
  *********************
  
  Flooding refers to all water that overflows a node, whether it ponds or not.
  --------------------------------------------------------------------------
                                                             Total   Maximum
                                 Maximum   Time of Max       Flood    Ponded
                        Hours       Rate    Occurrence      Volume     Depth
  Node                 Flooded       LPS   days hr:min    10^6 ltr    Meters
  --------------------------------------------------------------------------
  WS02006248              0.01      4.58      0  02:13       0.000     0.000
  WS02006249              0.15    100.72      0  01:59       0.032     0.000
  WS02006252              0.01    245.63      0  00:00       0.000     0.000
  WS02006256              0.26    293.19      0  00:00       0.087     0.000
  YS02001580              0.01    115.86      0  01:42       0.000     0.000
  YS02001583              0.01    130.16      0  01:42       0.000     0.000
  YS02001586              0.63    515.12      0  01:53       0.551     0.000
  YS02001590              0.01     33.98      0  01:40       0.000     0.000
  YS02001600              0.01      0.88      0  01:42       0.000     0.000
  YS02001601              0.83   1422.60      0  01:51       1.832     0.000
  YS02001602              0.69     61.99      0  02:10       0.140     0.000
  YS02001605              0.01      5.53      0  01:42       0.000     0.000
  YS02001607              0.01     20.64      0  01:42       0.000     0.000
  YS02001610              0.61    832.23      0  01:53       0.960     0.000
  YS02001613              0.01      0.32      0  02:22       0.000     0.000
  YS02001616              0.01     57.02      0  01:42       0.000     0.000
  YS02001619              0.01     75.70      0  01:42       0.000     0.000
  YS02001622              0.01     95.41      0  01:42       0.000     0.000
  YS02001625              0.55   1402.87      0  01:54       1.414     0.000
  YS02001629              0.15    326.89      0  01:49       0.091     0.000
  YS02001644              0.23   1137.50      0  01:50       0.521     0.000
  YS02001649              0.01     43.86      0  01:47       0.000     0.000
  YS02001652              0.01     56.28      0  01:47       0.000     0.000
  YS02001655              0.01     57.89      0  01:47       0.000     0.000
  YS02001658              0.01    535.82      0  01:47       0.001     0.000
  YS02001745              0.01    104.15      0  01:47       0.000     0.000
  YS02001748              0.01    333.62      0  01:47       0.000     0.000
  YS02001751              0.01    342.37      0  01:46       0.000     0.000
  YS02001754              0.01     75.93      0  01:46       0.000     0.000
  YS02001757              0.01     19.91      0  01:47       0.000     0.000
  YS02001762              0.01      8.07      0  01:47       0.000     0.000
  YS02001765              0.01     34.71      0  01:45       0.000     0.000
  YS02001767              0.01     19.65      0  01:46       0.000     0.000
  YS02001770              0.01     87.93      0  01:45       0.000     0.000
  YS02001779              0.20    653.36      0  01:50       0.262     0.000
  YS02001882              0.01     36.75      0  01:43       0.000     0.000
  YS02001890              0.21    438.62      0  01:50       0.171     0.000
  YS02001895              0.01     43.73      0  01:43       0.000     0.000
  YS02001907              0.44   2248.97      0  01:50       1.779     0.000
  YS02001910              0.01     38.24      0  01:43       0.000     0.000
  YS02001915              0.01    153.27      0  01:43       0.000     0.000
  YS02001918              0.01    229.59      0  01:45       0.002     0.000
  YS02001920              0.01     44.12      0  01:45       0.000     0.000
  YS02001923              0.01    456.90      0  01:45       0.003     0.000
  YS02001926              0.01    584.37      0  01:45       0.001     0.000
  YS02001929              0.01    241.52      0  01:45       0.000     0.000
  
  
  **********************
  Storage Volume Summary
  **********************
  
  ------------------------------------------------------------------------------------------------
                         Average    Avg   Evap  Exfil     Maximum    Max    Time of Max    Maximum
                          Volume   Pcnt   Pcnt   Pcnt      Volume   Pcnt     Occurrence    Outflow
  Storage Unit           1000 m³   Full   Loss   Loss     1000 m³   Full    days hr:min        LPS
  ------------------------------------------------------------------------------------------------
  CC-storage               2.158   33.7    0.0    0.0       4.309   67.2       0  02:28    1783.53
  JK-storage               0.087   29.9    0.0    0.0       0.212   72.7       0  01:56    2300.00
  
  
  ***********************
  Outfall Loading Summary
  ***********************
  
  -----------------------------------------------------------
                         Flow       Avg       Max       Total
                         Freq      Flow      Flow      Volume
  Outfall Node           Pcnt       LPS       LPS    10^6 ltr
  -----------------------------------------------------------
  CC-1                  60.21    683.00    683.00       5.371
  CC-2                  59.83    683.00    683.00       5.371
  JK-1                   1.48   1000.00   1000.00       0.304
  JK-2                  32.37   1000.00   1000.00       4.209
  WSC                   99.94    187.16    510.35       3.522
  -----------------------------------------------------------
  System                50.77   3553.16   3366.23      18.777
  
  
  ********************
  Link Flow Summary
  ********************
  
  -----------------------------------------------------------------------------
                                 Maximum  Time of Max   Maximum    Max/    Max/
                                  |Flow|   Occurrence   |Veloc|    Full    Full
  Link                 Type          LPS  days hr:min     m/sec    Flow   Depth
  -----------------------------------------------------------------------------
  1                    CONDUIT    510.35     0  02:21      2.76    0.18    0.29
  WS02003060WS02003069 CONDUIT    516.48     0  02:19      1.62    0.20    0.32
  WS02003066WSF200     CONDUIT    496.02     0  02:18      2.80    0.08    0.21
  WS02003067WS02003066 CONDUIT    495.64     0  02:18      1.15    0.16    0.41
  WS02003069WS02003072 CONDUIT    514.76     0  02:20      1.34    0.25    0.37
  WS02003072WS02003073 CONDUIT    512.03     0  02:20      1.40    1.11    0.36
  WS02004401WS02004402 CONDUIT    525.39     0  02:15      0.98    0.63    0.84
  WS02004402WS02004403 CONDUIT    523.31     0  02:15      0.97    0.75    0.87
  WS02004403WS02004404 CONDUIT    517.43     0  02:15      0.92    0.37    0.91
  WS02004404WS02004405 CONDUIT    515.48     0  02:15      1.08    5.05    0.94
  WS02004405WS02004406 CONDUIT    516.41     0  02:16      0.99    1.02    0.94
  WS02004406WS02004407 CONDUIT    512.04     0  02:16      1.01    0.23    0.62
  WS02004407WS02004409 CONDUIT    510.58     0  02:17      1.50    0.18    0.46
  WS02004409WS02004410 CONDUIT    507.05     0  02:17      0.97    0.66    0.64
  WS02004410WS02004411 CONDUIT    505.04     0  02:17      0.93    0.69    0.66
  WS02004411WS02004412 CONDUIT    503.25     0  02:17      0.91    0.71    0.67
  WS02004412WS02004413 CONDUIT    499.04     0  02:17      0.79    0.33    0.75
  WS02004413WS02003067 CONDUIT    494.93     0  02:18      1.06    0.21    0.57
  WS02006109WS02006110 CONDUIT    555.45     0  02:13      1.11    1.07    1.00
  WS02006110WS02006113 CONDUIT    565.53     0  02:09      1.37    0.51    0.79
  WS02006111WS02006112 CONDUIT    541.16     0  02:05      1.81    0.26    0.67
  WS02006112WS02006115 CONDUIT    548.50     0  02:15      0.81    0.32    0.86
  WS02006113WS02006111 CONDUIT    562.08     0  02:05      2.47    0.67    0.46
  WS02006115WS02006116 CONDUIT    537.83     0  02:15      0.98    0.69    0.73
  WS02006116WS02004401 CONDUIT    532.53     0  02:14      0.98    0.73    0.81
  WS02006228WS02006109 CONDUIT    554.19     0  02:13      1.10    2.42    1.00
  WS02006229WS02006228 CONDUIT    553.35     0  02:13      1.14    1.83    1.00
  WS02006230WS02006229 CONDUIT    553.99     0  02:13      1.44   12.33    1.00
  WS02006231WS02006230 CONDUIT    570.10     0  02:08      1.55    8.65    1.00
  WS02006232WS02006231 CONDUIT    574.13     0  02:08      1.50    1.20    1.00
  WS02006234WS02006232 CONDUIT    573.32     0  02:08      1.49    1.16    1.00
  WS02006235WS02006234 CONDUIT    568.36     0  02:08      1.48    6.00    1.00
  WS02006238WS02006235 CONDUIT    426.44     0  02:10      1.45    0.95    1.00
  WS02006239WS02006238 CONDUIT    424.88     0  02:10      1.10    1.36    1.00
  WS02006240WS02006239 CONDUIT    423.68     0  02:10      1.24    1.33    1.00
  WS02006242WS02006240 CONDUIT    420.10     0  02:10      1.13    1.67    1.00
  WS02006243WS02006242 CONDUIT    419.84     0  02:10      1.40    0.90    1.00
  WS02006245WS02006243 CONDUIT    418.82     0  02:10      1.45    1.24    1.00
  WS02006247WS02006245 CONDUIT    418.85     0  02:10      1.43    3.32    1.00
  WS02006248WS02006247 CONDUIT    418.47     0  02:15      1.44    0.91    1.00
  WS02006249WS02006248 CONDUIT    419.15     0  02:15      1.36    2.30    1.00
  WS02006251WS02006249 CONDUIT    459.02     0  00:00      1.99    1.32    1.00
  WS02006252WS02006251 CONDUIT    407.26     0  01:59     24.61    1.49    1.00
  WS02006256WS02006235 CONDUIT    288.91     0  00:00      4.23    3.06    1.00
  WSF200WS02003060     CONDUIT    498.98     0  02:18      2.02    0.11    0.27
  YS02001580YS02001583 CONDUIT    131.19     0  01:42      0.72    0.51    1.00
  YS02001583YS02001586 CONDUIT    167.12     0  01:42      0.72    0.25    1.00
  YS02001586YS02001590 CONDUIT    317.95     0  02:08      1.26    0.56    1.00
  YS02001590YS02001593 CONDUIT    318.09     0  02:08      1.12    2.00    1.00
  YS02001593YS02001596 CONDUIT    318.17     0  02:04      1.75    0.50    1.00
  YS02001596YS02001600 CONDUIT    318.15     0  02:08      1.24    0.62    1.00
  YS02001600YS02001601 CONDUIT    317.92     0  02:15      1.12    0.55    1.00
  YS02001601YS02001602 CONDUIT    530.30     0  01:42      1.88    1.92    1.00
  YS02001602YS02001605 CONDUIT    530.05     0  01:42      1.87   11.22    1.00
  YS02001605YS02001607 CONDUIT    529.81     0  01:42      1.87    2.91    1.00
  YS02001607YS02001610 CONDUIT    540.80     0  01:41      0.69    0.51    1.00
  YS02001610YS02001613 CONDUIT    548.45     0  01:41      0.70    0.63    1.00
  YS02001613YS02001616 CONDUIT    557.25     0  01:41      0.72    0.48    1.00
  YS02001616YS02001619 CONDUIT    507.56     0  01:42      0.68    0.88    1.00
  YS02001619YS02001622 CONDUIT    989.95     0  01:51      1.26    1.46    1.00
  YS02001622YS02001625 CONDUIT    990.05     0  01:51      1.26    0.53    1.00
  YS02001625YS02001629 CONDUIT    930.97     0  01:44      1.19    0.44    1.00
  YS02001629YS02163301 CONDUIT    930.91     0  01:44      1.19    1.15    1.00
  YS02001633YS02163601 CONDUIT   1401.90     0  01:44      1.78    1.47    1.00
  YS02001641YS02001644 CONDUIT   1401.22     0  01:44      1.78    4.53    1.00
  YS02001644YS02001647 CONDUIT   1842.12     0  01:45      2.35    1.08    1.00
  YS02001647YS02001649 CONDUIT   1850.31     0  01:45      2.39    0.98    1.00
  YS02001649YS02001757 CONDUIT   2158.80     0  01:45      2.75    1.31    1.00
  YS02001652YS02001649 CONDUIT   1008.83     0  01:48      1.28    0.50    1.00
  YS02001655YS02001652 CONDUIT   1009.31     0  01:48      1.39    0.49    1.00
  YS02001658YS02001655 CONDUIT   1008.97     0  01:48      1.94    0.43    1.00
  YS02001661YS02001658 CONDUIT   1008.76     0  01:48      2.38    0.40    1.00
  YS02001664YS02001661 CONDUIT   1006.09     0  01:50      2.44    0.32    0.94
  YS02001745YS02001748 CONDUIT    666.63     0  01:49      2.29    0.26    1.00
  YS02001748YS02001751 CONDUIT    666.37     0  01:49      1.77    0.34    1.00
  YS02001751YS02001754 CONDUIT    666.10     0  01:49      1.48    0.32    1.00
  YS02001754YS02001757 CONDUIT    666.51     0  01:49      0.85    0.27    1.00
  YS02001757CaochengTiaoxuchi CONDUIT   3588.54     0  01:49      5.13    1.55    1.00
  YS02001759YS02001757 CONDUIT   1496.14     0  01:47      1.90    1.06    1.00
  YS02001762YS02001759 CONDUIT    849.72     0  01:47      1.08    0.98    1.00
  YS02001765YS02001762 CONDUIT    849.00     0  01:47      1.08    0.80    1.00
  YS02001767YS02001765 CONDUIT    849.15     0  01:47      1.08    1.07    1.00
  YS02001770YS02001767 CONDUIT    849.58     0  01:47      1.08    3.37    1.00
  YS02001774YS02001770 CONDUIT    653.25     0  01:50      0.83    0.42    1.00
  YS02001779YS02001774 CONDUIT    653.37     0  01:50      0.83    0.33    1.00
  YS02001783YS02001784 CONDUIT   1168.25     0  01:48      2.32    1.61    1.00
  YS02001784YS02001785 CONDUIT   1169.59     0  01:49      2.33    2.72    1.00
  YS02001786YS02001788 CONDUIT   1169.26     0  01:48      2.49    2.25    0.89
  YS02001788YS02001790 CONDUIT   1180.78     0  01:47      2.72    0.87    0.84
  YS02001790YS02001791 CONDUIT   1285.78     0  01:58      3.43    1.40    0.70
  YS02001791YS02001793 CONDUIT   1236.50     0  01:56      6.71    0.53    0.44
  YS02001793JiankangQianchi CONDUIT   1235.54     0  01:53      2.48    0.10    0.64
  YS02001882YS02001884 CONDUIT     63.03     0  01:43      0.16    0.07    1.00
  YS02001884YS02001887 CONDUIT     77.73     0  01:43      0.12    0.10    1.00
  YS02001887YS02001890 CONDUIT    954.33     0  01:50      1.22    1.63    1.00
  YS02001890YS02001895 CONDUIT    516.67     0  01:51      0.66    0.24    1.00
  YS02001895YS02001898 CONDUIT    516.61     0  01:51      0.66    0.90    1.00
  YS02001898YS02001901 CONDUIT    516.52     0  01:51      0.66    0.33    1.00
  YS02001901YS02001904 CONDUIT    516.47     0  01:51      0.66    0.80    1.00
  YS02001904YS02001907 CONDUIT    516.78     0  01:51      0.66    0.18    1.00
  YS02001907YS02006553 CONDUIT    795.07     0  02:12      0.88    0.94    1.00
  YS02001910YS02001907 CONDUIT   1627.69     0  01:50      2.07    0.92    1.00
  YS02001915YS02001910 CONDUIT   1627.59     0  01:50      2.07    0.81    1.00
  YS02001918YS02001915 CONDUIT    541.40     0  01:50      0.69    0.30    1.00
  YS02001920YS02001918 CONDUIT    541.01     0  01:50      0.69    0.52    1.00
  YS02001923YS02001920 CONDUIT    537.83     0  01:50      0.70    0.24    1.00
  YS02001926YS02001923 CONDUIT    535.57     0  01:52      0.96    0.76    1.00
  YS02001929YS02001926 CONDUIT    535.20     0  01:52      1.15    0.25    1.00
  YS02006553YS02006556 CONDUIT    795.53     0  02:12      1.01    0.68    1.00
  YS02006556YS02006558 CONDUIT    797.34     0  02:12      1.02    0.63    1.00
  YS02006558YS02006561 CONDUIT   1177.37     0  01:45      4.16    2.60    1.00
  YS02006561YS02001783 CONDUIT   1168.49     0  01:49      2.32    0.61    1.00
  YS02163301YS02001633 CONDUIT    930.48     0  01:44      1.18    0.87    1.00
  YS02163601YS02164001 CONDUIT   1401.90     0  01:44      1.78    1.24    1.00
  YS02164001YS02001641 CONDUIT   1401.68     0  01:44      1.78    1.91    1.00
  CC-R1                PUMP       683.00     0  00:00              1.00
  CC-R2                PUMP       683.00     0  00:00              1.00
  CC-S1                PUMP       200.00     0  00:00              1.00
  CC-S2                PUMP       200.00     0  00:00              1.00
  JK-R1                PUMP      1000.00     0  00:00              1.00
  JK-R2                PUMP      1000.00     0  00:00              1.00
  JK-S                 PUMP       300.00     0  00:00              1.00
  
  
  ***************************
  Flow Classification Summary
  ***************************
  
  -------------------------------------------------------------------------------------
                      Adjusted    ---------- Fraction of Time in Flow Class ---------- 
                       /Actual         Up    Down  Sub   Sup   Up    Down  Norm  Inlet 
  Conduit               Length    Dry  Dry   Dry   Crit  Crit  Crit  Crit  Ltd   Ctrl  
  -------------------------------------------------------------------------------------
  1                       1.00   0.00  0.00  0.00  0.00  1.00  0.00  0.00  0.58  0.00
  WS02003060WS02003069    1.00   0.00  0.00  0.00  0.98  0.02  0.00  0.00  0.78  0.00
  WS02003066WSF200        1.00   0.12  0.00  0.00  0.00  0.88  0.00  0.00  0.85  0.00
  WS02003067WS02003066    1.00   0.10  0.02  0.00  0.88  0.00  0.00  0.00  0.00  0.00
  WS02003069WS02003072    1.00   0.00  0.00  0.00  0.99  0.01  0.00  0.00  0.81  0.00
  WS02003072WS02003073    1.00   0.00  0.00  0.00  0.00  0.00  0.00  1.00  0.00  0.00
  WS02004401WS02004402    1.00   0.02  0.00  0.00  0.98  0.00  0.00  0.00  0.00  0.00
  WS02004402WS02004403    1.00   0.02  0.00  0.00  0.97  0.00  0.00  0.00  0.00  0.00
  WS02004403WS02004404    1.00   0.00  0.03  0.00  0.97  0.00  0.00  0.00  0.00  0.00
  WS02004404WS02004405    1.00   0.00  0.00  0.00  1.00  0.00  0.00  0.00  0.00  0.00
  WS02004405WS02004406    1.00   0.00  0.00  0.00  1.00  0.00  0.00  0.00  0.00  0.00
  WS02004406WS02004407    1.00   0.00  0.05  0.00  0.95  0.00  0.00  0.00  0.00  0.00
  WS02004407WS02004409    1.00   0.05  0.00  0.00  0.94  0.01  0.00  0.00  0.95  0.00
  WS02004409WS02004410    1.00   0.05  0.00  0.00  0.95  0.00  0.00  0.00  0.03  0.00
  WS02004410WS02004411    1.00   0.05  0.00  0.00  0.95  0.00  0.00  0.00  0.01  0.00
  WS02004411WS02004412    1.00   0.05  0.00  0.00  0.95  0.00  0.00  0.00  0.00  0.00
  WS02004412WS02004413    1.00   0.05  0.00  0.00  0.94  0.00  0.00  0.00  0.01  0.00
  WS02004413WS02003067    1.00   0.06  0.04  0.00  0.00  0.00  0.90  0.00  0.00  0.00
  WS02006109WS02006110    1.00   0.00  0.01  0.00  0.98  0.00  0.01  0.00  0.00  0.00
  WS02006110WS02006113    1.00   0.01  0.01  0.00  0.98  0.00  0.00  0.00  0.00  0.00
  WS02006111WS02006112    1.00   0.02  0.00  0.00  0.98  0.00  0.00  0.00  0.98  0.00
  WS02006112WS02006115    1.00   0.02  0.00  0.00  0.97  0.00  0.00  0.00  0.00  0.00
  WS02006113WS02006111    1.00   0.02  0.00  0.00  0.00  0.98  0.00  0.00  0.09  0.00
  WS02006115WS02006116    1.00   0.02  0.00  0.00  0.97  0.00  0.00  0.01  0.00  0.00
  WS02006116WS02004401    1.00   0.02  0.00  0.00  0.98  0.00  0.00  0.00  0.00  0.00
  WS02006228WS02006109    1.00   0.00  0.00  0.00  1.00  0.00  0.00  0.00  0.00  0.00
  WS02006229WS02006228    1.00   0.00  0.00  0.00  0.99  0.00  0.00  0.01  0.00  0.00
  WS02006230WS02006229    1.00   0.00  0.00  0.00  0.99  0.00  0.00  0.01  0.00  0.00
  WS02006231WS02006230    1.00   0.00  0.00  0.00  0.18  0.00  0.82  0.00  0.00  0.00
  WS02006232WS02006231    1.00   0.00  0.00  0.00  0.99  0.00  0.00  0.00  0.00  0.00
  WS02006234WS02006232    1.00   0.00  0.00  0.00  1.00  0.00  0.00  0.00  0.26  0.00
  WS02006235WS02006234    1.00   0.00  0.00  0.00  0.56  0.00  0.44  0.00  0.00  0.00
  WS02006238WS02006235    1.00   0.00  0.00  0.00  1.00  0.00  0.00  0.00  0.00  0.00
  WS02006239WS02006238    1.00   0.00  0.00  0.00  1.00  0.00  0.00  0.00  0.38  0.00
  WS02006240WS02006239    1.00   0.00  0.00  0.00  0.37  0.00  0.00  0.63  0.01  0.00
  WS02006242WS02006240    1.00   0.00  0.00  0.00  0.99  0.00  0.01  0.00  0.00  0.00
  WS02006243WS02006242    1.00   0.00  0.00  0.00  0.99  0.00  0.00  0.00  0.70  0.00
  WS02006245WS02006243    1.00   0.00  0.00  0.00  0.69  0.00  0.00  0.31  0.00  0.00
  WS02006247WS02006245    1.00   0.00  0.00  0.00  0.98  0.00  0.00  0.02  0.00  0.00
  WS02006248WS02006247    1.00   0.00  0.00  0.00  0.99  0.00  0.00  0.01  0.58  0.00
  WS02006249WS02006248    1.00   0.00  0.00  0.00  0.34  0.00  0.66  0.00  0.00  0.00
  WS02006251WS02006249    1.00   0.00  0.00  0.00  0.99  0.01  0.00  0.00  0.64  0.00
  WS02006252WS02006251    1.00   0.00  0.66  0.00  0.02  0.00  0.32  0.00  0.00  0.00
  WS02006256WS02006235    1.00   0.00  0.00  0.00  1.00  0.00  0.00  0.00  0.00  0.00
  WSF200WS02003060        1.00   0.00  0.12  0.00  0.56  0.32  0.00  0.00  0.64  0.00
  YS02001580YS02001583    1.00   0.21  0.57  0.00  0.22  0.00  0.00  0.00  0.66  0.00
  YS02001583YS02001586    1.00   0.41  0.31  0.00  0.27  0.00  0.00  0.00  0.67  0.00
  YS02001586YS02001590    1.00   0.13  0.00  0.00  0.44  0.04  0.00  0.39  0.35  0.00
  YS02001590YS02001593    1.00   0.13  0.01  0.00  0.14  0.00  0.73  0.00  0.00  0.00
  YS02001593YS02001596    1.00   0.13  0.00  0.00  0.16  0.01  0.00  0.69  0.02  0.00
  YS02001596YS02001600    1.00   0.13  0.00  0.00  0.22  0.01  0.00  0.63  0.04  0.00
  YS02001600YS02001601    1.00   0.13  0.01  0.00  0.86  0.00  0.00  0.00  0.59  0.00
  YS02001601YS02001602    1.00   0.13  0.01  0.00  0.87  0.00  0.00  0.00  0.00  0.00
  YS02001602YS02001605    1.00   0.13  0.00  0.00  0.87  0.00  0.00  0.00  0.00  0.00
  YS02001605YS02001607    1.00   0.13  0.00  0.00  0.87  0.00  0.00  0.00  0.00  0.00
  YS02001607YS02001610    1.00   0.13  0.01  0.00  0.86  0.00  0.00  0.00  0.01  0.00
  YS02001610YS02001613    1.00   0.13  0.00  0.00  0.87  0.00  0.00  0.00  0.00  0.00
  YS02001613YS02001616    1.00   0.13  0.00  0.00  0.87  0.00  0.00  0.00  0.00  0.00
  YS02001616YS02001619    1.00   0.13  0.00  0.00  0.87  0.00  0.00  0.00  0.00  0.00
  YS02001619YS02001622    1.00   0.13  0.00  0.00  0.87  0.00  0.00  0.00  0.28  0.00
  YS02001622YS02001625    1.00   0.13  0.00  0.00  0.87  0.00  0.00  0.00  0.03  0.00
  YS02001625YS02001629    1.00   0.13  0.04  0.00  0.19  0.00  0.64  0.00  0.00  0.00
  YS02001629YS02163301    1.00   0.15  0.01  0.00  0.84  0.00  0.00  0.00  0.00  0.00
  YS02001633YS02163601    1.00   0.00  0.01  0.00  0.99  0.00  0.00  0.00  0.14  0.00
  YS02001641YS02001644    1.00   0.00  0.01  0.00  0.99  0.00  0.00  0.00  0.00  0.00
  YS02001644YS02001647    1.00   0.00  0.16  0.00  0.84  0.00  0.00  0.00  0.00  0.00
  YS02001647YS02001649    1.00   0.00  0.16  0.00  0.55  0.28  0.00  0.00  0.56  0.00
  YS02001649YS02001757    1.00   0.00  0.00  0.00  0.68  0.31  0.00  0.00  0.47  0.00
  YS02001652YS02001649    1.00   0.00  0.00  0.00  0.97  0.03  0.00  0.00  0.72  0.00
  YS02001655YS02001652    1.00   0.00  0.00  0.00  0.21  0.01  0.00  0.78  0.05  0.00
  YS02001658YS02001655    1.00   0.00  0.14  0.00  0.67  0.19  0.00  0.00  0.66  0.00
  YS02001661YS02001658    1.00   0.14  0.00  0.00  0.51  0.35  0.00  0.00  0.71  0.00
  YS02001664YS02001661    1.00   0.13  0.00  0.00  0.73  0.14  0.00  0.00  0.85  0.00
  YS02001745YS02001748    1.00   0.00  0.00  0.00  0.11  0.01  0.00  0.88  0.06  0.00
  YS02001748YS02001751    1.00   0.00  0.00  0.00  0.83  0.17  0.00  0.00  0.78  0.00
  YS02001751YS02001754    1.00   0.00  0.00  0.00  0.17  0.00  0.00  0.82  0.02  0.00
  YS02001754YS02001757    1.00   0.00  0.00  0.00  1.00  0.00  0.00  0.00  0.81  0.00
  YS02001757CaochengTiaoxuchi    1.00   0.00  0.00  0.00  0.95  0.05  0.00  0.00  0.80  0.00
  YS02001759YS02001757    1.00   0.00  0.00  0.00  0.99  0.01  0.00  0.00  0.60  0.00
  YS02001762YS02001759    1.00   0.00  0.00  0.00  1.00  0.00  0.00  0.00  0.03  0.00
  YS02001765YS02001762    1.00   0.00  0.00  0.00  1.00  0.00  0.00  0.00  0.71  0.00
  YS02001767YS02001765    1.00   0.00  0.00  0.00  1.00  0.00  0.00  0.00  0.00  0.00
  YS02001770YS02001767    1.00   0.00  0.00  0.00  1.00  0.00  0.00  0.00  0.00  0.00
  YS02001774YS02001770    1.00   0.00  0.13  0.00  0.71  0.00  0.16  0.00  0.02  0.00
  YS02001779YS02001774    1.00   0.00  0.00  0.00  1.00  0.00  0.00  0.00  0.77  0.00
  YS02001783YS02001784    1.00   0.00  0.17  0.00  0.83  0.00  0.00  0.00  0.55  0.00
  YS02001784YS02001785    1.00   0.00  0.00  0.00  1.00  0.00  0.00  0.00  0.16  0.00
  YS02001786YS02001788    1.00   0.00  0.00  0.00  0.79  0.21  0.00  0.00  0.00  0.00
  YS02001788YS02001790    1.00   0.00  0.00  0.00  0.20  0.80  0.00  0.00  0.79  0.00
  YS02001790YS02001791    1.00   0.00  0.00  0.00  0.01  0.99  0.00  0.00  0.16  0.00
  YS02001791YS02001793    1.00   0.00  0.00  0.00  0.00  1.00  0.00  0.00  0.01  0.00
  YS02001793JiankangQianchi    1.00   0.00  0.00  0.00  0.97  0.02  0.00  0.00  0.95  0.00
  YS02001882YS02001884    1.00   0.15  0.01  0.00  0.85  0.00  0.00  0.00  0.00  0.00
  YS02001884YS02001887    1.00   0.06  0.05  0.00  0.89  0.00  0.00  0.00  0.00  0.00
  YS02001887YS02001890    1.00   0.00  0.00  0.00  0.97  0.00  0.03  0.00  0.00  0.00
  YS02001890YS02001895    1.00   0.00  0.15  0.00  0.84  0.00  0.00  0.00  0.00  0.00
  YS02001895YS02001898    1.00   0.16  0.00  0.00  0.83  0.00  0.02  0.00  0.00  0.00
  YS02001898YS02001901    1.00   0.16  0.00  0.00  0.84  0.00  0.00  0.00  0.01  0.00
  YS02001901YS02001904    1.00   0.16  0.00  0.00  0.84  0.00  0.00  0.00  0.00  0.00
  YS02001904YS02001907    1.00   0.00  0.15  0.00  0.84  0.00  0.00  0.00  0.00  0.00
  YS02001907YS02006553    1.00   0.00  0.02  0.00  0.98  0.00  0.00  0.00  0.00  0.00
  YS02001910YS02001907    1.00   0.00  0.00  0.00  0.97  0.00  0.00  0.03  0.12  0.00
  YS02001915YS02001910    1.00   0.00  0.00  0.00  0.97  0.03  0.00  0.00  0.13  0.00
  YS02001918YS02001915    1.00   0.00  0.01  0.00  0.98  0.02  0.00  0.00  0.73  0.00
  YS02001920YS02001918    1.00   0.00  0.01  0.00  0.99  0.00  0.00  0.00  0.00  0.00
  YS02001923YS02001920    1.00   0.00  0.00  0.00  1.00  0.00  0.00  0.00  0.91  0.00
  YS02001926YS02001923    1.00   0.00  0.07  0.00  0.08  0.00  0.85  0.00  0.00  0.00
  YS02001929YS02001926    1.00   0.00  0.13  0.00  0.87  0.00  0.00  0.00  0.81  0.00
  YS02006553YS02006556    1.00   0.01  0.00  0.00  0.99  0.00  0.00  0.00  0.03  0.00
  YS02006556YS02006558    1.00   0.00  0.00  0.00  1.00  0.00  0.00  0.00  0.00  0.00
  YS02006558YS02006561    1.00   0.17  0.00  0.00  0.07  0.76  0.00  0.00  0.18  0.00
  YS02006561YS02001783    1.00   0.17  0.00  0.00  0.11  0.73  0.00  0.00  0.67  0.00
  YS02163301YS02001633    1.00   0.00  0.15  0.00  0.85  0.00  0.00  0.00  0.00  0.00
  YS02163601YS02164001    1.00   0.00  0.08  0.00  0.92  0.00  0.00  0.00  0.00  0.00
  YS02164001YS02001641    1.00   0.01  0.07  0.00  0.92  0.00  0.00  0.00  0.05  0.00
  
  
  *************************
  Conduit Surcharge Summary
  *************************
  
  ----------------------------------------------------------------------------
                                                           Hours        Hours 
                         --------- Hours Full --------   Above Full   Capacity
  Conduit                Both Ends  Upstream  Dnstream   Normal Flow   Limited
  ----------------------------------------------------------------------------
  WS02003072WS02003073        0.01      0.01      0.01      0.21         0.01
  WS02004404WS02004405        0.01      0.01      0.01      2.07         0.01
  WS02004405WS02004406        0.01      0.01      0.01      0.02         0.01
  WS02006109WS02006110        0.06      0.06      1.41      0.12         0.01
  WS02006110WS02006113        0.01      0.01      1.40      0.01         0.01
  WS02006111WS02006112        0.01      0.01      1.52      0.01         0.01
  WS02006112WS02006115        0.01      0.01      0.04      0.01         0.01
  WS02006228WS02006109        1.39      1.41      1.39      1.66         1.38
  WS02006229WS02006228        1.38      1.39      1.38      1.49         1.38
  WS02006230WS02006229        1.43      1.47      1.43      2.47         1.43
  WS02006231WS02006230        0.07      0.07      0.15      2.24         0.01
  WS02006232WS02006231        0.13      0.13      1.41      0.17         0.01
  WS02006234WS02006232        1.36      1.36      1.41      0.15         0.16
  WS02006235WS02006234        0.31      0.32      1.37      2.15         0.01
  WS02006238WS02006235        1.38      1.38      1.40      0.01         0.01
  WS02006239WS02006238        1.39      1.40      1.39      1.41         1.33
  WS02006240WS02006239        1.37      1.38      1.37      1.41         1.30
  WS02006242WS02006240        1.38      1.38      1.40      1.51         0.01
  WS02006243WS02006242        1.38      1.38      1.39      0.01         0.02
  WS02006245WS02006243        1.37      1.37      1.38      1.34         1.27
  WS02006247WS02006245        1.37      1.37      1.37      2.08         1.37
  WS02006248WS02006247        1.36      1.36      1.37      0.01         0.02
  WS02006249WS02006248        1.36      1.36      1.36      2.05         0.01
  WS02006251WS02006249        1.36      1.36      1.36      1.47         1.32
  WS02006252WS02006251        1.50      1.50      1.56      1.50         0.01
  WS02006256WS02006235        2.17      2.19      5.31      0.26         0.01
  YS02001580YS02001583        0.78      0.78      0.83      0.01         0.01
  YS02001583YS02001586        0.79      0.79      0.92      0.01         0.01
  YS02001586YS02001590        0.93      0.93      1.01      0.01         0.01
  YS02001590YS02001593        1.01      1.01      1.03      1.09         0.01
  YS02001593YS02001596        1.02      1.02      1.14      0.01         0.01
  YS02001596YS02001600        1.19      1.19      1.32      0.01         0.01
  YS02001600YS02001601        1.41      1.41      1.65      0.01         0.01
  YS02001601YS02001602        1.56      1.56      1.68      1.35         0.01
  YS02001602YS02001605        1.52      1.52      1.56      2.38         0.01
  YS02001605YS02001607        1.48      1.52      1.48      1.62         1.48
  YS02001607YS02001610        0.98      0.98      1.01      0.01         0.01
  YS02001610YS02001613        0.97      0.97      1.01      0.01         0.01
  YS02001613YS02001616        0.92      0.92      0.97      0.01         0.01
  YS02001616YS02001619        0.90      0.90      0.92      0.01         0.03
  YS02001619YS02001622        0.90      0.90      0.90      1.04         0.87
  YS02001622YS02001625        0.90      0.90      1.11      0.01         0.01
  YS02001625YS02001629        0.84      0.84      1.11      0.01         0.01
  YS02001629YS02163301        1.09      1.09      1.11      0.30         0.27
  YS02001633YS02163601        1.13      1.13      1.16      0.51         0.50
  YS02001641YS02001644        1.01      1.05      1.01      1.70         1.01
  YS02001644YS02001647        0.77      0.77      1.01      0.05         0.01
  YS02001647YS02001649        0.77      0.77      0.91      0.01         0.01
  YS02001649YS02001757        0.90      0.91      0.98      0.24         0.22
  YS02001652YS02001649        0.69      0.69      0.91      0.01         0.01
  YS02001655YS02001652        0.44      0.44      0.65      0.01         0.01
  YS02001658YS02001655        0.25      0.25      0.44      0.01         0.01
  YS02001661YS02001658        0.07      0.07      0.25      0.01         0.01
  YS02001664YS02001661        0.01      0.01      0.11      0.01         0.01
  YS02001745YS02001748        0.01      0.01      0.13      0.01         0.01
  YS02001748YS02001751        0.22      0.22      0.31      0.01         0.01
  YS02001751YS02001754        0.31      0.31      0.51      0.01         0.01
  YS02001754YS02001757        0.58      0.58      0.98      0.01         0.01
  YS02001757CaochengTiaoxuchi        0.80      0.98      1.31      0.50         0.28
  YS02001759YS02001757        0.86      0.86      0.98      0.10         0.09
  YS02001762YS02001759        0.82      0.82      0.86      0.01         0.02
  YS02001765YS02001762        0.76      0.76      0.82      0.01         0.01
  YS02001767YS02001765        0.71      0.71      0.76      0.01         0.03
  YS02001770YS02001767        0.71      0.71      0.71      0.66         0.54
  YS02001774YS02001770        0.68      0.68      0.80      0.01         0.01
  YS02001779YS02001774        0.51      0.51      0.80      0.01         0.01
  YS02001783YS02001784        0.64      0.66      0.64      0.83         0.64
  YS02001784YS02001785        0.52      0.64      0.52      1.13         0.52
  YS02001786YS02001788        0.01      0.52      0.01      0.95         0.01
  YS02001790YS02001791        0.01      0.01      0.01      0.62         0.01
  YS02001793JiankangQianchi        0.01      0.01      7.26      0.01         0.01
  YS02001882YS02001884        0.60      0.60      0.61      0.01         0.01
  YS02001884YS02001887        0.64      0.64      0.65      0.01         0.01
  YS02001887YS02001890        0.67      0.67      0.68      0.17         0.01
  YS02001890YS02001895        0.59      0.59      0.70      0.01         0.01
  YS02001895YS02001898        0.58      0.58      0.59      0.01         0.01
  YS02001898YS02001901        0.59      0.59      0.64      0.01         0.01
  YS02001901YS02001904        0.62      0.62      0.64      0.01         0.01
  YS02001904YS02001907        0.62      0.62      0.92      0.01         0.01
  YS02001907YS02006553        1.14      1.14      1.23      0.01         0.01
  YS02001910YS02001907        0.69      0.69      0.90      0.01         0.01
  YS02001915YS02001910        0.60      0.60      0.69      0.01         0.01
  YS02001918YS02001915        0.50      0.50      0.60      0.01         0.01
  YS02001920YS02001918        0.50      0.50      0.52      0.01         0.01
  YS02001923YS02001920        0.46      0.46      0.52      0.01         0.01
  YS02001926YS02001923        0.17      0.17      0.19      0.01         0.01
  YS02001929YS02001926        0.01      0.01      0.19      0.01         0.01
  YS02006553YS02006556        0.79      0.79      0.92      0.01         0.01
  YS02006556YS02006558        0.85      0.85      0.95      0.01         0.01
  YS02006558YS02006561        0.55      0.78      0.55      1.07         0.55
  YS02006561YS02001783        0.46      0.46      0.66      0.01         0.01
  YS02163301YS02001633        1.11      1.11      1.15      0.01         0.01
  YS02163601YS02164001        1.06      1.06      1.16      0.07         0.01
  YS02164001YS02001641        1.05      1.06      1.05      0.91         0.77
  
  
  ***************
  Pumping Summary
  ***************
  
  ---------------------------------------------------------------------------------------------------------
                                                  Min       Avg       Max     Total     Power    % Time Off
                        Percent   Number of      Flow      Flow      Flow    Volume     Usage    Pump Curve
  Pump                 Utilized   Start-Ups       LPS       LPS       LPS  10^6 ltr     Kw-hr    Low   High
  ---------------------------------------------------------------------------------------------------------
  CC-R1                   27.63          42      0.00    683.00    683.00     5.435     97.41    0.0   40.7
  CC-R2                   27.63          42      0.00    683.00    683.00     5.435     97.34    0.0   43.9
  CC-S1                   27.84          41      0.00    200.00    200.00     1.603      9.45    0.0    0.0
  CC-S2                   18.75           2      0.00    200.00    200.00     1.080      5.94    0.0    0.0
  JK-R1                    1.05           3      0.00   1000.00   1000.00     0.303      3.52    0.0    0.0
  JK-R2                   14.85          52      0.00   1000.00   1000.00     4.278     39.67    0.0    0.0
  JK-S                     3.23           9      0.00    300.00    300.00     0.279      3.93    0.0    0.0
  

  Analysis begun on:  Mon Feb 24 09:44:37 2025
  Analysis ended on:  Mon Feb 24 09:44:39 2025
  Total elapsed time: 00:00:02