
  EPA STORM WATER MANAGEMENT MODEL - VERSION 5.2 (Build 5.2.4)
  PYSWMM TOOLKIT API - VERSION v1.0 (2023-11-27)
  ------------------------------------------------------------

  WARNING 04: minimum elevation drop used for Conduit WS02004404WS02004405
  WARNING 03: negative offset ignored for Link YS02001904YS02001907
  
  ****************
  Analysis Options
  ****************
  Flow Units ............... LPS
  Process Models:
    Rainfall/Runoff ........ YES
    RDII ................... NO
    Snowmelt ............... NO
    Groundwater ............ NO
    Flow Routing ........... YES
    Ponding Allowed ........ NO
    Water Quality .......... NO
  Infiltration Method ...... HORTON
  Flow Routing Method ...... DYNWAVE
  Surcharge Method ......... EXTRAN
  Starting Date ............ 08/28/2015 08:00:00
  Ending Date .............. 08/28/2015 16:00:00
  Antecedent Dry Days ...... 8.0
  Report Time Step ......... 00:01:00
  Wet Time Step ............ 00:01:00
  Dry Time Step ............ 00:01:00
  Routing Time Step ........ 30.00 sec
  Variable Time Step ....... YES
  Maximum Trials ........... 8
  Number of Threads ........ 4
  Head Tolerance ........... 0.001500 m
  
  
  **************************        Volume         Depth
  Runoff Quantity Continuity     hectare-m            mm
  **************************     ---------       -------
  Total Precipitation ......         2.598        78.315
  Evaporation Loss .........         0.000         0.000
  Infiltration Loss ........         0.100         3.020
  Surface Runoff ...........         2.465        74.321
  Final Storage ............         0.033         0.994
  Continuity Error (%) .....        -0.025
  
  
  **************************        Volume        Volume
  Flow Routing Continuity        hectare-m      10^6 ltr
  **************************     ---------     ---------
  Dry Weather Inflow .......         0.025         0.251
  Wet Weather Inflow .......         2.465        24.646
  Groundwater Inflow .......         0.000         0.000
  RDII Inflow ..............         0.000         0.000
  External Inflow ..........         0.083         0.834
  External Outflow .........         1.765        17.655
  Flooding Loss ............         0.872         8.720
  Evaporation Loss .........         0.000         0.000
  Exfiltration Loss ........         0.000         0.000
  Initial Stored Volume ....         0.243         2.431
  Final Stored Volume ......         0.187         1.868
  Continuity Error (%) .....        -0.290
  
  
  *************************
  Highest Continuity Errors
  *************************
  Node YS02001583 (-14.09%)
  Node YS02001884 (5.03%)
  
  
  ***************************
  Time-Step Critical Elements
  ***************************
  Link WS02006252WS02006251 (50.54%)
  Link WS02004404WS02004405 (14.35%)
  Link WS02006238WS02006235 (9.15%)
  Link WS02006235WS02006234 (6.93%)
  Link YS02001791YS02001793 (6.92%)
  
  
  ********************************
  Highest Flow Instability Indexes
  ********************************
  Link WS02006113WS02006111 (56)
  Link WS02006111WS02006112 (27)
  Link WS02004404WS02004405 (21)
  Link WS02004403WS02004404 (19)
  Link WS02004405WS02004406 (18)
  
  
  *********************************
  Most Frequent Nonconverging Nodes
  *********************************
  Node CC-1 (8.80%)
  Node CC-2 (8.80%)
  Node JK-1 (8.80%)
  Node JK-2 (8.80%)
  Node WSC (8.80%)
  
  
  *************************
  Routing Time Step Summary
  *************************
  Minimum Time Step           :     0.00 sec
  Average Time Step           :     1.78 sec
  Maximum Time Step           :     7.04 sec
  % of Time in Steady State   :     0.00
  Average Iterations per Step :     2.87
  % of Steps Not Converging   :     8.80
  Time Step Frequencies       :
     30.000 - 13.228 sec      :     0.00 %
     13.228 -  5.833 sec      :     8.21 %
      5.833 -  2.572 sec      :    12.52 %
      2.572 -  1.134 sec      :    22.89 %
      1.134 -  0.500 sec      :    56.37 %
  
  
  ***************************
  Subcatchment Runoff Summary
  ***************************
  
  ------------------------------------------------------------------------------------------------------------------------------
                            Total      Total      Total      Total     Imperv       Perv      Total       Total     Peak  Runoff
                           Precip      Runon       Evap      Infil     Runoff     Runoff     Runoff      Runoff   Runoff   Coeff
  Subcatchment                 mm         mm         mm         mm         mm         mm         mm    10^6 ltr      LPS
  ------------------------------------------------------------------------------------------------------------------------------
  sub60                     78.32       0.00       0.00       1.84      67.72       7.57      75.29        0.99   618.33   0.961
  sub61                     78.32       0.00       0.00       2.66      63.88      10.66      74.54        1.37   853.79   0.952
  sub62                     78.32       0.00       0.00       1.22      70.77       5.05      75.81        2.08  1199.41   0.968
  sub63                     78.32       0.00       0.00       4.87      54.64      17.85      72.49        1.65   940.61   0.926
  sub64                     78.32       0.00       0.00       2.46      65.37       9.29      74.65        1.79   971.31   0.953
  sub65                     78.32       0.00       0.00       2.13      66.89       8.05      74.94        2.06  1082.53   0.957
  sub66                     78.32       0.00       0.00       5.97      54.53      16.75      71.28        3.32  1400.33   0.910
  sub67                     78.32       0.00       0.00       1.18      70.81       5.09      75.90        1.41   936.48   0.969
  sub68                     78.32       0.00       0.00       2.20      66.17       8.77      74.94        2.06  1231.16   0.957
  sub69                     78.32       0.00       0.00       1.95      66.46       9.80      76.26        2.82  1447.68   0.974
  sub70                     78.32       0.00       0.00       6.43      51.53      20.20      71.72        2.07   789.18   0.916
  sub71                     78.32       0.00       0.00       1.25      70.73       5.02      75.74        1.98  1053.08   0.967
  sub72                     78.32       0.00       0.00       1.11      71.44       4.37      75.81        1.04   506.64   0.968
  
  
  ******************
  Node Depth Summary
  ******************
  
  ---------------------------------------------------------------------------------
                                 Average  Maximum  Maximum  Time of Max    Reported
                                   Depth    Depth      HGL   Occurrence   Max Depth
  Node                 Type       Meters   Meters   Meters  days hr:min      Meters
  ---------------------------------------------------------------------------------
  WS02003060           JUNCTION     0.27     0.38     5.32     0  02:46        0.38
  WS02003066           JUNCTION     0.22     0.30     5.85     0  02:45        0.30
  WS02003067           JUNCTION     0.54     0.70     6.02     0  02:47        0.70
  WS02003069           JUNCTION     0.29     0.43     5.01     0  02:47        0.43
  WS02003072           JUNCTION     0.36     0.50     4.87     0  02:48        0.50
  WS02003073           JUNCTION     0.21     0.30     4.36     0  02:48        0.30
  WS02004401           JUNCTION     0.64     0.88     6.88     0  02:45        0.88
  WS02004402           JUNCTION     0.68     0.90     6.86     0  02:44        0.90
  WS02004403           JUNCTION     0.70     0.92     6.85     0  02:38        0.92
  WS02004404           JUNCTION     0.78     1.01     6.86     0  02:43        1.00
  WS02004405           JUNCTION     0.76     0.97     6.82     0  02:41        0.96
  WS02004406           JUNCTION     0.77     0.96     6.79     0  02:43        0.96
  WS02004407           JUNCTION     0.20     0.30     6.61     0  02:44        0.30
  WS02004409           JUNCTION     0.44     0.67     6.44     0  02:45        0.67
  WS02004410           JUNCTION     0.47     0.68     6.40     0  02:46        0.68
  WS02004411           JUNCTION     0.49     0.69     6.37     0  02:47        0.69
  WS02004412           JUNCTION     0.51     0.70     6.34     0  02:47        0.70
  WS02004413           JUNCTION     0.67     0.86     6.33     0  02:47        0.86
  WS02006109           JUNCTION     0.70     1.12     7.74     0  02:26        0.99
  WS02006110           JUNCTION     0.70     1.18     7.77     0  02:26        0.97
  WS02006111           JUNCTION     0.20     0.29     6.99     0  02:56        0.29
  WS02006112           JUNCTION     0.80     1.09     6.97     0  02:42        1.07
  WS02006113           JUNCTION     0.30     0.46     7.35     0  02:52        0.46
  WS02006115           JUNCTION     0.53     0.78     6.91     0  02:41        0.77
  WS02006116           JUNCTION     0.62     0.85     6.89     0  02:41        0.85
  WS02006228           JUNCTION     0.69     1.12     7.77     0  02:10        1.03
  WS02006229           JUNCTION     0.66     1.15     7.85     0  02:25        1.04
  WS02006230           JUNCTION     0.66     1.31     8.06     0  02:25        1.18
  WS02006231           JUNCTION     0.46     1.26     8.39     0  02:18        1.26
  WS02006232           JUNCTION     0.60     1.53     8.57     0  05:03        1.35
  WS02006234           JUNCTION     0.53     1.22     8.38     0  02:25        1.18
  WS02006235           JUNCTION     0.57     1.34     8.50     0  02:10        1.26
  WS02006238           JUNCTION     0.60     1.38     8.53     0  02:10        1.30
  WS02006239           JUNCTION     0.57     1.38     8.59     0  02:10        1.28
  WS02006240           JUNCTION     0.53     1.35     8.64     0  02:10        1.24
  WS02006242           JUNCTION     0.61     1.40     8.67     0  02:10        1.30
  WS02006243           JUNCTION     0.51     1.26     8.68     0  02:10        1.19
  WS02006245           JUNCTION     0.51     1.23     8.71     0  02:00        1.15
  WS02006247           JUNCTION     0.54     1.22     8.72     0  02:00        1.15
  WS02006248           JUNCTION     0.49     1.10     8.69     0  02:00        1.09
  WS02006249           JUNCTION     0.53     1.09     8.69     0  01:36        1.09
  WS02006251           JUNCTION     0.52     1.44     9.11     0  01:55        1.13
  WS02006252           JUNCTION     0.38     1.50     9.74     0  00:00        0.69
  WS02006256           JUNCTION     0.98     2.35     9.28     0  00:00        2.35
  WSF200               JUNCTION     0.19     0.29     5.52     0  02:43        0.29
  YS02001580           JUNCTION     0.09     1.05     9.59     0  01:33        0.77
  YS02001583           JUNCTION     0.13     1.14     9.64     0  01:34        0.82
  YS02001586           JUNCTION     0.18     1.13     9.30     0  01:34        1.13
  YS02001590           JUNCTION     0.27     1.40     9.26     0  01:34        1.39
  YS02001593           JUNCTION     0.21     1.37     9.23     0  01:34        1.29
  YS02001596           JUNCTION     0.28     1.71     9.13     0  01:34        1.65
  YS02001600           JUNCTION     0.33     1.87     9.00     0  01:34        1.86
  YS02001601           JUNCTION     0.51     2.06     8.90     0  01:33        2.06
  YS02001602           JUNCTION     0.42     1.87     8.77     0  01:34        1.87
  YS02001605           JUNCTION     0.40     1.78     8.68     0  01:34        1.78
  YS02001607           JUNCTION     0.41     1.65     8.49     0  02:05        1.64
  YS02001610           JUNCTION     0.45     1.68     8.48     0  01:34        1.68
  YS02001613           JUNCTION     0.41     1.70     8.54     0  01:34        1.67
  YS02001616           JUNCTION     0.34     1.61     8.52     0  01:34        1.61
  YS02001619           JUNCTION     0.32     1.61     8.54     0  01:34        1.61
  YS02001622           JUNCTION     0.31     1.62     8.52     0  01:34        1.58
  YS02001625           JUNCTION     0.58     1.78     8.38     0  01:34        1.78
  YS02001629           JUNCTION     0.42     1.85     8.40     0  01:34        1.85
  YS02001633           JUNCTION     0.50     2.06     8.52     0  01:36        2.06
  YS02001641           JUNCTION     0.49     1.96     8.39     0  01:36        1.94
  YS02001644           JUNCTION     0.49     1.92     8.35     0  01:36        1.92
  YS02001647           JUNCTION     0.28     1.79     8.40     0  01:36        1.77
  YS02001649           JUNCTION     0.32     2.05     8.44     0  01:36        2.05
  YS02001652           JUNCTION     0.23     2.07     8.66     0  01:37        1.81
  YS02001655           JUNCTION     0.18     2.20     9.05     0  02:13        1.57
  YS02001658           JUNCTION     0.13     1.94     9.08     0  01:37        1.32
  YS02001661           JUNCTION     0.15     1.85     9.26     0  01:37        1.14
  YS02001664           JUNCTION     0.05     1.45     9.38     0  01:37        0.56
  YS02001745           JUNCTION     0.06     2.03     9.55     0  01:36        1.14
  YS02001748           JUNCTION     0.12     2.27     9.35     0  01:36        1.33
  YS02001751           JUNCTION     0.15     2.20     9.08     0  01:36        1.42
  YS02001754           JUNCTION     0.20     2.20     8.81     0  01:36        1.76
  YS02001757           JUNCTION     0.35     2.21     8.47     0  01:36        2.21
  YS02001759           JUNCTION     0.29     2.20     8.57     0  01:36        2.20
  YS02001762           JUNCTION     0.28     2.15     8.55     0  01:36        2.13
  YS02001765           JUNCTION     0.26     2.10     8.55     0  01:36        2.06
  YS02001767           JUNCTION     0.26     2.03     8.52     0  01:36        1.99
  YS02001770           JUNCTION     0.27     1.95     8.44     0  01:36        1.95
  YS02001774           JUNCTION     0.34     2.05     8.47     0  01:36        2.05
  YS02001779           JUNCTION     0.19     1.68     8.37     0  01:35        1.68
  YS02001783           JUNCTION     0.21     1.31     7.45     0  01:35        1.24
  YS02001784           JUNCTION     0.23     1.19     7.26     0  01:35        1.12
  YS02001786           JUNCTION     0.19     0.98     7.01     0  01:35        0.87
  YS02001788           JUNCTION     0.14     0.62     6.60     0  01:40        0.62
  YS02001790           JUNCTION     0.16     0.72     6.37     0  01:45        0.72
  YS02001791           JUNCTION     0.10     0.44     5.91     0  01:41        0.43
  YS02001793           JUNCTION     0.05     0.31     5.14     0  01:44        0.28
  YS02001882           JUNCTION     0.28     1.73     8.45     0  01:34        1.71
  YS02001884           JUNCTION     0.37     1.81     8.43     0  01:34        1.80
  YS02001887           JUNCTION     0.45     1.87     8.41     0  01:37        1.87
  YS02001890           JUNCTION     0.48     1.81     8.32     0  01:34        1.81
  YS02001895           JUNCTION     0.25     1.74     8.48     0  01:34        1.57
  YS02001898           JUNCTION     0.26     1.76     8.50     0  01:34        1.58
  YS02001901           JUNCTION     0.38     1.78     8.38     0  01:34        1.68
  YS02001904           JUNCTION     0.36     1.69     8.32     0  01:35        1.64
  YS02001907           JUNCTION     0.68     1.96     8.25     0  01:35        1.96
  YS02001910           JUNCTION     0.48     2.10     8.61     0  01:36        2.10
  YS02001915           JUNCTION     0.28     2.00     8.72     0  01:35        2.00
  YS02001918           JUNCTION     0.16     1.81     8.88     0  01:35        1.81
  YS02001920           JUNCTION     0.23     2.14     9.15     0  01:36        2.14
  YS02001923           JUNCTION     0.12     2.03     9.29     0  01:35        2.03
  YS02001926           JUNCTION     0.15     1.90     9.35     0  01:35        1.90
  YS02001929           JUNCTION     0.08     1.78     9.47     0  01:35        1.78
  YS02006553           JUNCTION     0.69     1.99     8.27     0  01:35        1.99
  YS02006556           JUNCTION     0.66     1.99     8.30     0  01:35        1.99
  YS02006558           JUNCTION     0.70     2.05     8.32     0  01:37        2.05
  YS02006561           JUNCTION     0.14     0.97     7.63     0  01:35        0.91
  YS02163301           JUNCTION     0.44     1.97     8.48     0  01:34        1.94
  YS02163601           JUNCTION     0.54     2.05     8.45     0  01:37        2.05
  YS02164001           JUNCTION     0.48     1.96     8.42     0  01:36        1.96
  CC-1                 OUTFALL      0.00     0.00     0.00     0  00:00        0.00
  CC-2                 OUTFALL      0.00     0.00     0.00     0  00:00        0.00
  JK-1                 OUTFALL      0.00     0.00     0.00     0  00:00        0.00
  JK-2                 OUTFALL      0.00     0.00     0.00     0  00:00        0.00
  WSC                  OUTFALL      0.21     0.30     0.97     0  02:49        0.30
  CC-storage           STORAGE      0.89     1.70     7.20     0  02:19        1.70
  JK-storage           STORAGE      3.04     4.22     5.02     0  02:17        4.19
  
  
  *******************
  Node Inflow Summary
  *******************
  
  -------------------------------------------------------------------------------------------------
                                  Maximum  Maximum                  Lateral       Total        Flow
                                  Lateral    Total  Time of Max      Inflow      Inflow     Balance
                                   Inflow   Inflow   Occurrence      Volume      Volume       Error
  Node                 Type           LPS      LPS  days hr:min    10^6 ltr    10^6 ltr     Percent
  -------------------------------------------------------------------------------------------------
  WS02003060           JUNCTION     16.53   553.98     0  02:46       0.476        6.53       0.029
  WS02003066           JUNCTION      0.00   537.37     0  02:45           0        6.06       0.021
  WS02003067           JUNCTION      0.00   537.38     0  02:46           0        6.06       0.066
  WS02003069           JUNCTION      0.32   554.28     0  02:46     0.00922        6.54       0.053
  WS02003072           JUNCTION      0.00   554.23     0  02:47           0        6.53       0.098
  WS02003073           JUNCTION      1.82   556.02     0  02:48      0.0524        6.58       0.075
  WS02004401           JUNCTION      0.00   540.66     0  02:43           0        6.15       0.160
  WS02004402           JUNCTION      0.00   540.83     0  02:43           0        6.14       0.163
  WS02004403           JUNCTION      0.00   541.09     0  02:44           0        6.13       0.157
  WS02004404           JUNCTION      0.16   553.75     0  02:43     0.00467        6.13       0.169
  WS02004405           JUNCTION      0.04   602.10     0  02:45      0.0011        6.12       0.126
  WS02004406           JUNCTION      0.00   542.72     0  02:41           0        6.11       0.330
  WS02004407           JUNCTION      0.00   539.01     0  02:43           0        6.09       0.015
  WS02004409           JUNCTION      0.00   538.45     0  02:44           0        6.09       0.038
  WS02004410           JUNCTION      0.00   537.93     0  02:45           0        6.09       0.065
  WS02004411           JUNCTION      0.00   537.78     0  02:46           0        6.08       0.084
  WS02004412           JUNCTION      0.00   537.60     0  02:47           0        6.08       0.115
  WS02004413           JUNCTION      0.00   537.70     0  02:47           0        6.07       0.207
  WS02006109           JUNCTION      1.23   554.06     0  02:10      0.0354        6.19       0.136
  WS02006110           JUNCTION      0.00   554.46     0  02:18           0        6.19       0.099
  WS02006111           JUNCTION      0.00   560.92     0  02:52           0        6.18       0.010
  WS02006112           JUNCTION      0.00   543.09     0  02:56           0        6.18       0.273
  WS02006113           JUNCTION      0.00   568.23     0  01:37           0        6.18       0.027
  WS02006115           JUNCTION      0.00   553.00     0  02:12           0        6.16       0.099
  WS02006116           JUNCTION      0.00   541.13     0  02:41           0        6.15       0.025
  WS02006228           JUNCTION      0.00   552.74     0  02:11           0        6.16       0.048
  WS02006229           JUNCTION      0.00   552.55     0  02:11           0        6.17       0.065
  WS02006230           JUNCTION     10.28   582.41     0  02:17       0.296        6.17       0.047
  WS02006231           JUNCTION      0.00   576.82     0  02:10           0        5.87       0.008
  WS02006232           JUNCTION      0.00   576.05     0  02:10           0        5.88       0.090
  WS02006234           JUNCTION      0.00   579.41     0  01:34           0        5.87      -0.108
  WS02006235           JUNCTION      0.00   574.78     0  01:34           0        5.91       0.101
  WS02006238           JUNCTION      0.00   430.20     0  01:55           0        5.01      -0.109
  WS02006239           JUNCTION      0.00   430.00     0  01:55           0        4.98      -0.104
  WS02006240           JUNCTION      0.00   426.58     0  01:55           0        4.96      -0.036
  WS02006242           JUNCTION      0.00   425.74     0  01:55           0        4.95      -0.095
  WS02006243           JUNCTION      0.00   425.23     0  01:55           0        4.94      -0.047
  WS02006245           JUNCTION      0.00   425.17     0  01:55           0        4.95       0.192
  WS02006247           JUNCTION      0.00   425.17     0  01:55           0        4.95       0.010
  WS02006248           JUNCTION      0.00   425.20     0  01:55           0        4.96       0.059
  WS02006249           JUNCTION      0.00   464.79     0  01:30           0        5.21       0.155
  WS02006251           JUNCTION      0.08   405.83     0  01:36     0.00222        5.21       0.007
  WS02006252           JUNCTION      0.00   400.00     0  00:00           0        5.21      -0.037
  WS02006256           JUNCTION      0.00   300.00     0  00:00           0        1.35      -0.593
  WSF200               JUNCTION      0.00   537.39     0  02:45           0        6.05       0.005
  YS02001580           JUNCTION      0.00   165.38     0  01:33           0     0.00448      -1.183
  YS02001583           JUNCTION      0.00   263.36     0  01:34           0      0.0145     -12.348
  YS02001586           JUNCTION    789.18   789.18     0  01:43        2.07        2.08       0.089
  YS02001590           JUNCTION      0.00   317.97     0  02:10           0        1.52      -0.040
  YS02001593           JUNCTION      0.00   318.04     0  01:51           0        1.52      -0.001
  YS02001596           JUNCTION      0.00   318.14     0  01:45           0        1.52      -0.011
  YS02001600           JUNCTION      0.00   318.00     0  01:39           0        1.52       0.002
  YS02001601           JUNCTION   1447.68  1765.21     0  01:40        2.82        4.35       0.014
  YS02001602           JUNCTION      0.00   579.47     0  01:33           0        2.49       0.016
  YS02001605           JUNCTION      0.00   579.09     0  01:33           0        2.34       0.016
  YS02001607           JUNCTION      0.00   579.07     0  01:33           0        2.34       0.084
  YS02001610           JUNCTION      0.00   781.65     0  01:42           0        2.69       0.081
  YS02001613           JUNCTION      0.00   541.29     0  01:34           0        2.07       0.080
  YS02001616           JUNCTION      0.00   533.93     0  01:34           0        2.07       0.030
  YS02001619           JUNCTION   1400.33  1400.33     0  01:42        3.32        5.03      -0.010
  YS02001622           JUNCTION      0.00   960.76     0  01:41           0        4.67      -0.007
  YS02001625           JUNCTION      0.00  1376.53     0  01:44           0        4.94       0.184
  YS02001629           JUNCTION      0.00   923.81     0  01:34           0        3.72       0.002
  YS02001633           JUNCTION   1082.73  1423.92     0  01:35        2.07        5.43       0.059
  YS02001641           JUNCTION      0.00  1418.98     0  01:35           0        5.08       0.051
  YS02001644           JUNCTION    971.35  1946.83     0  01:35        1.79        6.87       0.044
  YS02001647           JUNCTION      0.00  1949.41     0  01:35           0        6.29       0.007
  YS02001649           JUNCTION      0.00  2206.57     0  01:35           0        7.94       0.001
  YS02001652           JUNCTION      0.00  1062.44     0  01:37           0        1.65      -0.092
  YS02001655           JUNCTION      0.15  1060.20     0  01:37     0.00443        1.65       0.004
  YS02001658           JUNCTION      0.00  1060.24     0  01:37           0        1.65      -0.090
  YS02001661           JUNCTION      0.00  1059.33     0  01:37           0        1.65       0.027
  YS02001664           JUNCTION    940.61   940.61     0  01:39        1.65        1.65      -0.033
  YS02001745           JUNCTION    618.34   707.31     0  01:36       0.989        0.99       0.174
  YS02001748           JUNCTION      0.04   928.71     0  01:36      0.0013       0.995      -0.386
  YS02001751           JUNCTION      0.01   663.58     0  01:37    0.000317           1       0.033
  YS02001754           JUNCTION      0.26   664.61     0  01:37     0.00749        1.02      -0.210
  YS02001757           JUNCTION      0.00  3611.86     0  01:37           0        12.1       0.042
  YS02001759           JUNCTION    853.83  1542.70     0  01:36        1.37        3.17      -0.009
  YS02001762           JUNCTION      0.00   789.10     0  01:36           0         1.8       0.001
  YS02001765           JUNCTION      0.00   791.71     0  01:36           0         1.8       0.016
  YS02001767           JUNCTION      0.54   793.75     0  01:36      0.0154         1.8      -0.009
  YS02001770           JUNCTION   1199.56  1199.56     0  01:39        2.08        2.13      -0.036
  YS02001774           JUNCTION      0.00   631.22     0  01:35           0       0.367       0.282
  YS02001779           JUNCTION      0.01   645.38     0  01:35    0.000144        0.32      -0.330
  YS02001783           JUNCTION      0.00  1171.31     0  01:37           0        4.59       0.004
  YS02001784           JUNCTION      1.06  1171.93     0  01:36      0.0305        4.62       0.011
  YS02001786           JUNCTION      0.06  1172.20     0  01:37     0.00162        4.62       0.014
  YS02001788           JUNCTION      0.07  1172.98     0  01:37     0.00204        4.62       0.007
  YS02001790           JUNCTION      0.15  1177.36     0  01:35     0.00446        4.63       0.034
  YS02001791           JUNCTION      0.00  1289.92     0  01:45           0        4.63      -0.034
  YS02001793           JUNCTION      0.00  1254.90     0  01:44           0        4.63       0.002
  YS02001882           JUNCTION      0.00    87.93     0  01:34           0       0.013       3.565
  YS02001884           JUNCTION      0.00   151.78     0  01:34           0       0.049       5.301
  YS02001887           JUNCTION    936.93   937.25     0  01:38        1.42        1.46       0.303
  YS02001890           JUNCTION      0.00   937.69     0  01:38           0        1.42       0.357
  YS02001895           JUNCTION      0.00   602.55     0  01:35           0        1.25       0.109
  YS02001898           JUNCTION      0.00   602.28     0  01:35           0        1.24      -0.022
  YS02001901           JUNCTION      0.00   606.28     0  01:35           0        1.25       0.271
  YS02001904           JUNCTION      0.00   605.89     0  01:35           0        1.25       0.222
  YS02001907           JUNCTION      0.00  2132.01     0  01:40           0        4.37       0.411
  YS02001910           JUNCTION      0.00  1568.08     0  01:40           0        3.11       0.238
  YS02001915           JUNCTION   1053.10  1567.74     0  01:40        1.98        3.16       0.047
  YS02001918           JUNCTION      0.00   744.26     0  01:35           0        1.21       0.005
  YS02001920           JUNCTION      2.87   719.66     0  01:35      0.0827        1.19       0.055
  YS02001923           JUNCTION      0.04   977.05     0  01:35     0.00109        1.09      -0.119
  YS02001926           JUNCTION      0.05  1238.29     0  01:35      0.0015        1.06      -0.325
  YS02001929           JUNCTION    506.64  1144.39     0  01:35        1.04        1.05      -0.358
  YS02006553           JUNCTION      0.00   792.73     0  02:03           0        2.58       0.462
  YS02006556           JUNCTION      0.00   792.33     0  02:03           0        2.59       0.307
  YS02006558           JUNCTION   1232.04  1232.04     0  01:39        2.09        4.64       0.079
  YS02006561           JUNCTION      0.00  1170.55     0  01:37           0        4.59      -0.007
  YS02163301           JUNCTION      0.00   877.46     0  01:34           0        3.71       0.033
  YS02163601           JUNCTION      0.11  1422.92     0  01:35     0.00317        5.08       0.093
  YS02164001           JUNCTION      0.00  1421.56     0  01:35           0        5.08       0.036
  CC-1                 OUTFALL       0.00   683.00     0  00:00           0         3.9       0.000
  CC-2                 OUTFALL       0.00   683.00     0  00:00           0        3.83       0.000
  JK-1                 OUTFALL       0.00  1000.00     0  00:00           0        2.39       0.000
  JK-2                 OUTFALL       0.00  1000.00     0  00:00           0       0.959       0.000
  WSC                  OUTFALL       0.00   555.97     0  02:49           0        6.57       0.000
  CC-storage           STORAGE       0.00  3611.72     0  01:37           0        14.3      -0.214
  JK-storage           STORAGE       0.00  1254.99     0  01:41           0        4.78      -0.222
  
  
  **********************
  Node Surcharge Summary
  **********************
  
  Surcharging occurs when water rises above the top of the highest conduit.
  ---------------------------------------------------------------------
                                               Max. Height   Min. Depth
                                   Hours       Above Crown    Below Rim
  Node                 Type      Surcharged         Meters       Meters
  ---------------------------------------------------------------------
  WS02004404           JUNCTION        0.01          0.012        2.768
  WS02006109           JUNCTION        2.43          0.302        1.518
  WS02006110           JUNCTION        0.85          0.272        1.578
  WS02006112           JUNCTION        0.95          0.086        1.594
  WS02006228           JUNCTION        2.41          0.289        1.911
  WS02006229           JUNCTION        2.45          0.353        2.097
  WS02006230           JUNCTION        0.86          0.230        1.340
  WS02006231           JUNCTION        0.97          0.553        0.977
  WS02006232           JUNCTION        2.54          0.833        0.647
  WS02006234           JUNCTION        1.33          0.499        0.741
  WS02006235           JUNCTION        2.43          0.629        0.661
  WS02006238           JUNCTION        2.49          0.662        0.768
  WS02006239           JUNCTION        2.42          0.639        0.651
  WS02006240           JUNCTION        2.44          0.637        0.753
  WS02006242           JUNCTION        2.52          0.670        0.150
  WS02006243           JUNCTION        2.44          0.552        0.218
  WS02006245           JUNCTION        2.44          0.518        0.332
  WS02006247           JUNCTION        2.46          0.506        0.254
  WS02006248           JUNCTION        2.42          0.380        0.000
  WS02006249           JUNCTION        2.44          0.390        0.000
  WS02006251           JUNCTION        1.04          0.407        0.773
  WS02006252           JUNCTION        2.84          1.100        0.000
  WS02006256           JUNCTION        5.82          2.050        0.000
  YS02001580           JUNCTION        0.78          0.450        0.000
  YS02001583           JUNCTION        0.79          0.500        0.000
  YS02001586           JUNCTION        0.95          0.510        0.000
  YS02001590           JUNCTION        1.04          0.750        0.000
  YS02001593           JUNCTION        1.03          0.752        0.088
  YS02001596           JUNCTION        1.15          0.980        0.090
  YS02001600           JUNCTION        1.31          1.190        0.000
  YS02001601           JUNCTION        1.65          1.440        0.000
  YS02001602           JUNCTION        1.57          1.270        0.000
  YS02001605           JUNCTION        1.52          1.180        0.000
  YS02001607           JUNCTION        1.02          0.646        0.034
  YS02001610           JUNCTION        1.05          0.680        0.000
  YS02001613           JUNCTION        1.01          0.700        0.000
  YS02001616           JUNCTION        0.97          0.610        0.000
  YS02001619           JUNCTION        0.95          0.610        0.000
  YS02001622           JUNCTION        0.95          0.620        0.000
  YS02001625           JUNCTION        1.15          0.780        0.000
  YS02001629           JUNCTION        0.90          0.470        0.000
  YS02001633           JUNCTION        1.17          1.043        0.017
  YS02001641           JUNCTION        1.13          0.956        0.144
  YS02001644           JUNCTION        1.11          0.920        0.000
  YS02001647           JUNCTION        0.90          0.794        0.106
  YS02001649           JUNCTION        1.05          1.050        0.000
  YS02001652           JUNCTION        0.81          1.036        0.094
  YS02001655           JUNCTION        0.58          1.200        0.000
  YS02001658           JUNCTION        0.29          0.937        0.363
  YS02001661           JUNCTION        0.05          0.783        0.607
  YS02001664           JUNCTION        0.01          0.451        0.859
  YS02001745           JUNCTION        0.01          1.029        0.321
  YS02001748           JUNCTION        0.20          1.190        0.000
  YS02001751           JUNCTION        0.40          1.200        0.000
  YS02001754           JUNCTION        0.69          1.150        0.000
  YS02001757           JUNCTION        1.13          1.210        0.000
  YS02001759           JUNCTION        1.02          1.202        0.008
  YS02001762           JUNCTION        0.98          1.150        0.000
  YS02001765           JUNCTION        0.93          1.100        0.000
  YS02001767           JUNCTION        0.88          1.030        0.000
  YS02001770           JUNCTION        0.85          0.920        0.000
  YS02001774           JUNCTION        0.95          1.050        0.000
  YS02001779           JUNCTION        0.67          0.680        0.000
  YS02001783           JUNCTION        0.67          0.510        1.090
  YS02001784           JUNCTION        0.64          0.391        1.099
  YS02001786           JUNCTION        0.54          0.184        1.246
  YS02001882           JUNCTION        0.61          0.732        0.098
  YS02001884           JUNCTION        0.62          0.752        0.118
  YS02001887           JUNCTION        0.66          0.822        0.128
  YS02001890           JUNCTION        0.67          0.760        0.000
  YS02001895           JUNCTION        0.60          0.737        0.013
  YS02001898           JUNCTION        0.59          0.734        0.006
  YS02001901           JUNCTION        0.64          0.775        0.095
  YS02001904           JUNCTION        0.63          0.687        0.163
  YS02001907           JUNCTION        0.88          0.950        0.000
  YS02001910           JUNCTION        0.70          1.100        0.000
  YS02001915           JUNCTION        0.61          1.000        0.000
  YS02001918           JUNCTION        0.52          0.810        0.000
  YS02001920           JUNCTION        0.53          1.140        0.000
  YS02001923           JUNCTION        0.17          0.820        0.000
  YS02001926           JUNCTION        0.21          0.900        0.000
  YS02001929           JUNCTION        0.01          0.780        0.000
  YS02006553           JUNCTION        0.90          0.988        0.202
  YS02006556           JUNCTION        0.79          0.946        0.404
  YS02006558           JUNCTION        0.78          0.951        0.449
  YS02006561           JUNCTION        0.48          0.172        0.978
  YS02163301           JUNCTION        1.16          0.967        0.063
  YS02163601           JUNCTION        1.21          1.049        0.031
  YS02164001           JUNCTION        1.13          0.961        0.139
  
  
  *********************
  Node Flooding Summary
  *********************
  
  Flooding refers to all water that overflows a node, whether it ponds or not.
  --------------------------------------------------------------------------
                                                             Total   Maximum
                                 Maximum   Time of Max       Flood    Ponded
                        Hours       Rate    Occurrence      Volume     Depth
  Node                 Flooded       LPS   days hr:min    10^6 ltr    Meters
  --------------------------------------------------------------------------
  WS02006248              0.01      6.20      0  02:00       0.000     0.000
  WS02006249              1.01     95.11      0  01:36       0.246     0.000
  WS02006252              0.01    245.63      0  00:00       0.000     0.000
  WS02006256              1.25    293.19      0  00:00       0.442     0.000
  YS02001580              0.01    111.92      0  01:33       0.000     0.000
  YS02001583              0.01    168.01      0  01:34       0.000     0.000
  YS02001586              0.64    471.71      0  01:43       0.548     0.000
  YS02001590              0.01      6.59      0  01:34       0.000     0.000
  YS02001600              0.01      4.91      0  01:34       0.000     0.000
  YS02001601              0.87   1367.37      0  01:40       1.855     0.000
  YS02001602              0.75     62.05      0  01:42       0.155     0.000
  YS02001605              0.01      4.03      0  01:34       0.000     0.000
  YS02001610              0.68    781.25      0  01:42       0.980     0.000
  YS02001613              0.01     19.85      0  01:34       0.000     0.000
  YS02001616              0.01     57.62      0  01:34       0.000     0.000
  YS02001619              0.01     92.37      0  01:34       0.000     0.000
  YS02001622              0.01    181.21      0  01:34       0.000     0.000
  YS02001625              0.64   1376.40      0  01:44       1.561     0.000
  YS02001629              0.15    355.65      0  01:38       0.092     0.000
  YS02001644              0.25   1097.45      0  01:38       0.566     0.000
  YS02001649              0.01    199.91      0  01:37       0.002     0.000
  YS02001655              0.01    142.69      0  02:13       0.000     0.000
  YS02001748              0.01    424.13      0  01:36       0.001     0.000
  YS02001751              0.01    205.60      0  01:36       0.001     0.000
  YS02001754              0.01     31.45      0  01:36       0.000     0.000
  YS02001757              0.01     46.40      0  01:37       0.000     0.000
  YS02001762              0.01     11.71      0  01:36       0.000     0.000
  YS02001765              0.01      6.46      0  01:36       0.000     0.000
  YS02001767              0.01      2.57      0  01:36       0.000     0.000
  YS02001770              0.01     81.67      0  01:37       0.002     0.000
  YS02001774              0.01      5.11      0  01:36       0.000     0.000
  YS02001779              0.22    608.04      0  01:39       0.300     0.000
  YS02001890              0.20    413.58      0  01:38       0.167     0.000
  YS02001907              0.46   2131.61      0  01:40       1.787     0.000
  YS02001910              0.01     13.22      0  01:36       0.000     0.000
  YS02001915              0.01     30.69      0  01:35       0.000     0.000
  YS02001918              0.01    237.77      0  01:36       0.004     0.000
  YS02001920              0.01     14.94      0  01:36       0.000     0.000
  YS02001923              0.01    216.00      0  01:35       0.001     0.000
  YS02001926              0.01    203.28      0  01:36       0.003     0.000
  YS02001929              0.01   1127.69      0  01:35       0.006     0.000
  
  
  **********************
  Storage Volume Summary
  **********************
  
  ------------------------------------------------------------------------------------------------
                         Average    Avg   Evap  Exfil     Maximum    Max    Time of Max    Maximum
                          Volume   Pcnt   Pcnt   Pcnt      Volume   Pcnt     Occurrence    Outflow
  Storage Unit           1000 m³   Full   Loss   Loss     1000 m³   Full    days hr:min        LPS
  ------------------------------------------------------------------------------------------------
  CC-storage               2.472   38.6    0.0    0.0       4.734   73.8       0  02:19    1783.53
  JK-storage               0.153   52.4    0.0    0.0       0.212   72.7       0  02:17    2300.00
  
  
  ***********************
  Outfall Loading Summary
  ***********************
  
  -----------------------------------------------------------
                         Flow       Avg       Max       Total
                         Freq      Flow      Flow      Volume
  Outfall Node           Pcnt       LPS       LPS    10^6 ltr
  -----------------------------------------------------------
  CC-1                  19.27    683.00    683.00       3.900
  CC-2                  18.86    683.00    683.00       3.830
  JK-1                   8.37   1000.00   1000.00       2.391
  JK-2                   3.29   1000.00   1000.00       0.959
  WSC                   99.96    302.51    555.97       6.574
  -----------------------------------------------------------
  System                29.95   3668.51   3916.84      17.655
  
  
  ********************
  Link Flow Summary
  ********************
  
  -----------------------------------------------------------------------------
                                 Maximum  Time of Max   Maximum    Max/    Max/
                                  |Flow|   Occurrence   |Veloc|    Full    Full
  Link                 Type          LPS  days hr:min     m/sec    Flow   Depth
  -----------------------------------------------------------------------------
  1                    CONDUIT    555.97     0  02:49      2.83    0.19    0.30
  WS02003060WS02003069 CONDUIT    553.96     0  02:46      1.64    0.22    0.34
  WS02003066WSF200     CONDUIT    537.39     0  02:45      2.85    0.09    0.22
  WS02003067WS02003066 CONDUIT    537.37     0  02:45      1.21    0.17    0.42
  WS02003069WS02003072 CONDUIT    554.23     0  02:47      1.37    0.27    0.39
  WS02003072WS02003073 CONDUIT    554.20     0  02:48      1.44    1.20    0.37
  WS02004401WS02004402 CONDUIT    540.83     0  02:43      0.98    0.65    0.89
  WS02004402WS02004403 CONDUIT    541.09     0  02:44      0.97    0.78    0.91
  WS02004403WS02004404 CONDUIT    553.59     0  02:43      0.92    0.40    0.96
  WS02004404WS02004405 CONDUIT    602.06     0  02:45      1.08    5.90    0.98
  WS02004405WS02004406 CONDUIT    542.72     0  02:41      0.99    1.07    0.96
  WS02004406WS02004407 CONDUIT    539.01     0  02:43      1.04    0.24    0.63
  WS02004407WS02004409 CONDUIT    538.45     0  02:44      1.66    0.19    0.48
  WS02004409WS02004410 CONDUIT    537.93     0  02:45      1.07    0.70    0.68
  WS02004410WS02004411 CONDUIT    537.78     0  02:46      1.03    0.73    0.69
  WS02004411WS02004412 CONDUIT    537.60     0  02:47      1.00    0.76    0.69
  WS02004412WS02004413 CONDUIT    537.70     0  02:47      0.82    0.36    0.78
  WS02004413WS02003067 CONDUIT    537.38     0  02:46      1.11    0.23    0.59
  WS02006109WS02006110 CONDUIT    554.46     0  02:18      1.10    1.07    1.00
  WS02006110WS02006113 CONDUIT    568.23     0  01:37      1.37    0.52    0.79
  WS02006111WS02006112 CONDUIT    543.09     0  02:56      1.81    0.26    0.67
  WS02006112WS02006115 CONDUIT    553.00     0  02:12      0.88    0.33    0.88
  WS02006113WS02006111 CONDUIT    560.92     0  02:52      2.47    0.67    0.46
  WS02006115WS02006116 CONDUIT    541.13     0  02:41      1.17    0.69    0.78
  WS02006116WS02004401 CONDUIT    540.66     0  02:43      1.00    0.75    0.86
  WS02006228WS02006109 CONDUIT    552.83     0  02:10      1.10    2.42    1.00
  WS02006229WS02006228 CONDUIT    552.74     0  02:11      1.14    1.83    1.00
  WS02006230WS02006229 CONDUIT    552.55     0  02:11      1.44   12.30    1.00
  WS02006231WS02006230 CONDUIT    572.13     0  02:17      1.58    8.68    1.00
  WS02006232WS02006231 CONDUIT    576.82     0  02:10      1.51    1.21    1.00
  WS02006234WS02006232 CONDUIT    576.05     0  02:10      1.50    1.17    1.00
  WS02006235WS02006234 CONDUIT    579.41     0  01:34      1.62    6.11    1.00
  WS02006238WS02006235 CONDUIT    429.88     0  01:55      1.47    0.96    1.00
  WS02006239WS02006238 CONDUIT    430.20     0  01:55      1.12    1.38    1.00
  WS02006240WS02006239 CONDUIT    430.00     0  01:55      1.24    1.35    1.00
  WS02006242WS02006240 CONDUIT    426.58     0  01:55      1.13    1.69    1.00
  WS02006243WS02006242 CONDUIT    425.74     0  01:55      1.40    0.91    1.00
  WS02006245WS02006243 CONDUIT    425.23     0  01:55      1.45    1.26    1.00
  WS02006247WS02006245 CONDUIT    425.17     0  01:55      1.43    3.37    1.00
  WS02006248WS02006247 CONDUIT    425.17     0  01:55      1.44    0.93    1.00
  WS02006249WS02006248 CONDUIT    425.20     0  01:55      1.37    2.33    1.00
  WS02006251WS02006249 CONDUIT    464.79     0  01:30      2.01    1.34    1.00
  WS02006252WS02006251 CONDUIT    405.75     0  01:36     24.61    1.49    1.00
  WS02006256WS02006235 CONDUIT    288.91     0  00:00      4.23    3.06    1.00
  WSF200WS02003060     CONDUIT    537.45     0  02:46      2.06    0.12    0.28
  YS02001580YS02001583 CONDUIT    165.38     0  01:33      0.88    0.64    1.00
  YS02001583YS02001586 CONDUIT    205.72     0  01:33      0.91    0.31    1.00
  YS02001586YS02001590 CONDUIT    317.97     0  02:10      1.28    0.56    1.00
  YS02001590YS02001593 CONDUIT    318.04     0  01:51      1.12    2.00    1.00
  YS02001593YS02001596 CONDUIT    318.14     0  01:45      1.74    0.50    1.00
  YS02001596YS02001600 CONDUIT    318.00     0  01:39      1.22    0.62    1.00
  YS02001600YS02001601 CONDUIT    317.92     0  01:51      1.12    0.55    1.00
  YS02001601YS02001602 CONDUIT    579.47     0  01:33      2.05    2.09    1.00
  YS02001602YS02001605 CONDUIT    579.09     0  01:33      2.05   12.25    1.00
  YS02001605YS02001607 CONDUIT    579.07     0  01:33      2.05    3.18    1.00
  YS02001607YS02001610 CONDUIT    549.13     0  01:33      0.73    0.52    1.00
  YS02001610YS02001613 CONDUIT    541.29     0  01:34      0.69    0.62    1.00
  YS02001613YS02001616 CONDUIT    533.93     0  01:34      0.68    0.46    1.00
  YS02001616YS02001619 CONDUIT    455.11     0  02:25      0.68    0.79    1.00
  YS02001619YS02001622 CONDUIT    960.76     0  01:41      1.31    1.42    1.00
  YS02001622YS02001625 CONDUIT    960.63     0  01:40      1.22    0.51    1.00
  YS02001625YS02001629 CONDUIT    923.81     0  01:34      1.18    0.44    1.00
  YS02001629YS02163301 CONDUIT    877.46     0  01:34      1.12    1.08    1.00
  YS02001633YS02163601 CONDUIT   1422.81     0  01:35      1.81    1.49    1.00
  YS02001641YS02001644 CONDUIT   1417.74     0  01:35      1.81    4.58    1.00
  YS02001644YS02001647 CONDUIT   1949.41     0  01:35      2.48    1.15    1.00
  YS02001647YS02001649 CONDUIT   1955.49     0  01:35      2.49    1.03    1.00
  YS02001649YS02001757 CONDUIT   2208.38     0  01:35      2.81    1.34    1.00
  YS02001652YS02001649 CONDUIT   1062.36     0  01:37      1.35    0.53    1.00
  YS02001655YS02001652 CONDUIT   1062.44     0  01:37      1.58    0.52    1.00
  YS02001658YS02001655 CONDUIT   1060.05     0  01:37      2.06    0.45    1.00
  YS02001661YS02001658 CONDUIT   1060.24     0  01:37      2.47    0.42    1.00
  YS02001664YS02001661 CONDUIT   1059.33     0  01:37      2.59    0.33    1.00
  YS02001745YS02001748 CONDUIT    661.59     0  01:37      2.46    0.25    1.00
  YS02001748YS02001751 CONDUIT    663.57     0  01:37      1.92    0.34    1.00
  YS02001751YS02001754 CONDUIT    664.35     0  01:37      1.59    0.32    1.00
  YS02001754YS02001757 CONDUIT    665.48     0  01:37      0.85    0.27    1.00
  YS02001757CaochengTiaoxuchi CONDUIT   3611.72     0  01:37      4.77    1.56    1.00
  YS02001759YS02001757 CONDUIT   1542.77     0  01:36      1.96    1.10    1.00
  YS02001762YS02001759 CONDUIT    791.20     0  01:36      1.01    0.91    1.00
  YS02001765YS02001762 CONDUIT    789.10     0  01:36      1.00    0.74    1.00
  YS02001767YS02001765 CONDUIT    791.71     0  01:36      1.01    1.00    1.00
  YS02001770YS02001767 CONDUIT    793.22     0  01:36      1.01    3.14    1.00
  YS02001774YS02001770 CONDUIT    631.22     0  01:35      0.80    0.40    1.00
  YS02001779YS02001774 CONDUIT    645.38     0  01:35      0.83    0.33    1.00
  YS02001783YS02001784 CONDUIT   1170.87     0  01:36      2.33    1.61    1.00
  YS02001784YS02001785 CONDUIT   1172.15     0  01:37      2.33    2.73    1.00
  YS02001786YS02001788 CONDUIT   1172.91     0  01:37      2.50    2.26    0.89
  YS02001788YS02001790 CONDUIT   1177.20     0  01:35      2.75    0.87    0.84
  YS02001790YS02001791 CONDUIT   1289.92     0  01:45      3.43    1.40    0.71
  YS02001791YS02001793 CONDUIT   1254.90     0  01:44      6.79    0.54    0.45
  YS02001793JiankangQianchi CONDUIT   1254.99     0  01:41      2.52    0.10    0.66
  YS02001882YS02001884 CONDUIT     87.93     0  01:34      0.17    0.10    1.00
  YS02001884YS02001887 CONDUIT    151.78     0  01:34      0.19    0.20    1.00
  YS02001887YS02001890 CONDUIT    937.69     0  01:38      1.19    1.60    1.00
  YS02001890YS02001895 CONDUIT    602.55     0  01:35      0.77    0.28    1.00
  YS02001895YS02001898 CONDUIT    602.28     0  01:35      0.77    1.05    1.00
  YS02001898YS02001901 CONDUIT    606.28     0  01:35      0.77    0.39    1.00
  YS02001901YS02001904 CONDUIT    605.89     0  01:35      0.77    0.94    1.00
  YS02001904YS02001907 CONDUIT    604.96     0  01:35      0.77    0.21    1.00
  YS02001907YS02006553 CONDUIT    792.73     0  02:03      0.88    0.93    1.00
  YS02001910YS02001907 CONDUIT   1567.87     0  01:40      2.00    0.88    1.00
  YS02001915YS02001910 CONDUIT   1568.08     0  01:40      2.00    0.78    1.00
  YS02001918YS02001915 CONDUIT    744.26     0  01:35      0.95    0.41    1.00
  YS02001920YS02001918 CONDUIT    716.79     0  01:35      0.91    0.69    1.00
  YS02001923YS02001920 CONDUIT    739.67     0  01:35      1.01    0.33    1.00
  YS02001926YS02001923 CONDUIT    975.69     0  01:35      1.43    1.39    1.00
  YS02001929YS02001926 CONDUIT    845.93     0  01:35      1.23    0.40    1.00
  YS02006553YS02006556 CONDUIT    792.33     0  02:03      1.01    0.68    1.00
  YS02006556YS02006558 CONDUIT    793.34     0  02:03      1.01    0.63    1.00
  YS02006558YS02006561 CONDUIT   1170.55     0  01:37      4.14    2.59    1.00
  YS02006561YS02001783 CONDUIT   1171.31     0  01:37      2.33    0.61    1.00
  YS02163301YS02001633 CONDUIT    876.95     0  01:34      1.12    0.82    1.00
  YS02163601YS02164001 CONDUIT   1421.56     0  01:35      1.81    1.26    1.00
  YS02164001YS02001641 CONDUIT   1418.98     0  01:35      1.81    1.94    1.00
  CC-R1                PUMP       683.00     0  00:00              1.00
  CC-R2                PUMP       683.00     0  00:00              1.00
  CC-S1                PUMP       200.00     0  00:00              1.00
  CC-S2                PUMP       200.00     0  00:00              1.00
  JK-R1                PUMP      1000.00     0  00:00              1.00
  JK-R2                PUMP      1000.00     0  00:00              1.00
  JK-S                 PUMP       300.00     0  00:00              1.00
  
  
  ***************************
  Flow Classification Summary
  ***************************
  
  -------------------------------------------------------------------------------------
                      Adjusted    ---------- Fraction of Time in Flow Class ---------- 
                       /Actual         Up    Down  Sub   Sup   Up    Down  Norm  Inlet 
  Conduit               Length    Dry  Dry   Dry   Crit  Crit  Crit  Crit  Ltd   Ctrl  
  -------------------------------------------------------------------------------------
  1                       1.00   0.00  0.00  0.00  0.00  1.00  0.00  0.00  0.51  0.00
  WS02003060WS02003069    1.00   0.00  0.00  0.00  0.99  0.01  0.00  0.00  0.61  0.00
  WS02003066WSF200        1.00   0.13  0.00  0.00  0.00  0.87  0.00  0.00  0.76  0.00
  WS02003067WS02003066    1.00   0.10  0.02  0.00  0.88  0.00  0.00  0.00  0.00  0.00
  WS02003069WS02003072    1.00   0.00  0.00  0.00  0.99  0.01  0.00  0.00  0.67  0.00
  WS02003072WS02003073    1.00   0.00  0.00  0.00  0.00  0.00  0.00  1.00  0.00  0.00
  WS02004401WS02004402    1.00   0.02  0.00  0.00  0.98  0.00  0.00  0.00  0.00  0.00
  WS02004402WS02004403    1.00   0.02  0.00  0.00  0.97  0.00  0.00  0.00  0.00  0.00
  WS02004403WS02004404    1.00   0.00  0.03  0.00  0.97  0.00  0.00  0.00  0.00  0.00
  WS02004404WS02004405    1.00   0.00  0.00  0.00  1.00  0.00  0.00  0.00  0.01  0.00
  WS02004405WS02004406    1.00   0.00  0.00  0.00  1.00  0.00  0.00  0.00  0.00  0.00
  WS02004406WS02004407    1.00   0.00  0.05  0.00  0.95  0.00  0.00  0.00  0.00  0.00
  WS02004407WS02004409    1.00   0.05  0.00  0.00  0.94  0.01  0.00  0.00  0.94  0.00
  WS02004409WS02004410    1.00   0.05  0.00  0.00  0.95  0.00  0.00  0.00  0.03  0.00
  WS02004410WS02004411    1.00   0.05  0.00  0.00  0.95  0.00  0.00  0.00  0.01  0.00
  WS02004411WS02004412    1.00   0.05  0.00  0.00  0.95  0.00  0.00  0.00  0.00  0.00
  WS02004412WS02004413    1.00   0.05  0.00  0.00  0.94  0.00  0.00  0.00  0.01  0.00
  WS02004413WS02003067    1.00   0.06  0.04  0.00  0.00  0.00  0.90  0.00  0.00  0.00
  WS02006109WS02006110    1.00   0.00  0.01  0.00  0.98  0.00  0.01  0.00  0.00  0.00
  WS02006110WS02006113    1.00   0.01  0.01  0.00  0.98  0.00  0.00  0.00  0.00  0.00
  WS02006111WS02006112    1.00   0.02  0.00  0.00  0.98  0.00  0.00  0.00  0.98  0.00
  WS02006112WS02006115    1.00   0.02  0.00  0.00  0.97  0.00  0.00  0.00  0.00  0.00
  WS02006113WS02006111    1.00   0.02  0.00  0.00  0.00  0.98  0.00  0.00  0.16  0.00
  WS02006115WS02006116    1.00   0.02  0.00  0.00  0.97  0.00  0.00  0.01  0.00  0.00
  WS02006116WS02004401    1.00   0.02  0.00  0.00  0.98  0.00  0.00  0.00  0.00  0.00
  WS02006228WS02006109    1.00   0.00  0.00  0.00  1.00  0.00  0.00  0.00  0.00  0.00
  WS02006229WS02006228    1.00   0.00  0.00  0.00  0.99  0.00  0.00  0.01  0.00  0.00
  WS02006230WS02006229    1.00   0.00  0.00  0.00  0.99  0.00  0.00  0.01  0.00  0.00
  WS02006231WS02006230    1.00   0.00  0.00  0.00  0.34  0.00  0.66  0.00  0.00  0.00
  WS02006232WS02006231    1.00   0.00  0.00  0.00  0.99  0.00  0.01  0.00  0.00  0.00
  WS02006234WS02006232    1.00   0.00  0.00  0.00  1.00  0.00  0.00  0.00  0.15  0.00
  WS02006235WS02006234    1.00   0.00  0.00  0.00  0.79  0.00  0.21  0.00  0.00  0.00
  WS02006238WS02006235    1.00   0.00  0.00  0.00  1.00  0.00  0.00  0.00  0.00  0.00
  WS02006239WS02006238    1.00   0.00  0.00  0.00  1.00  0.00  0.00  0.00  0.28  0.00
  WS02006240WS02006239    1.00   0.00  0.00  0.00  0.64  0.00  0.00  0.36  0.01  0.00
  WS02006242WS02006240    1.00   0.00  0.00  0.00  0.99  0.00  0.00  0.00  0.00  0.00
  WS02006243WS02006242    1.00   0.00  0.00  0.00  0.99  0.00  0.00  0.01  0.42  0.00
  WS02006245WS02006243    1.00   0.00  0.00  0.00  0.72  0.00  0.00  0.28  0.00  0.00
  WS02006247WS02006245    1.00   0.00  0.00  0.00  0.99  0.00  0.00  0.01  0.00  0.00
  WS02006248WS02006247    1.00   0.00  0.00  0.00  0.99  0.00  0.00  0.01  0.17  0.00
  WS02006249WS02006248    1.00   0.00  0.00  0.00  0.58  0.00  0.42  0.00  0.00  0.00
  WS02006251WS02006249    1.00   0.00  0.00  0.00  1.00  0.00  0.00  0.00  0.43  0.00
  WS02006252WS02006251    1.00   0.00  0.45  0.00  0.13  0.00  0.42  0.00  0.00  0.00
  WS02006256WS02006235    1.00   0.00  0.00  0.00  1.00  0.00  0.00  0.00  0.00  0.00
  WSF200WS02003060        1.00   0.00  0.13  0.00  0.27  0.60  0.00  0.00  0.36  0.00
  YS02001580YS02001583    1.00   0.19  0.59  0.00  0.22  0.00  0.00  0.00  0.68  0.00
  YS02001583YS02001586    1.00   0.42  0.30  0.00  0.28  0.00  0.00  0.00  0.68  0.00
  YS02001586YS02001590    1.00   0.13  0.00  0.00  0.43  0.04  0.00  0.40  0.33  0.00
  YS02001590YS02001593    1.00   0.13  0.01  0.00  0.14  0.00  0.72  0.00  0.00  0.00
  YS02001593YS02001596    1.00   0.13  0.00  0.00  0.16  0.01  0.00  0.69  0.02  0.00
  YS02001596YS02001600    1.00   0.13  0.00  0.00  0.22  0.01  0.00  0.63  0.04  0.00
  YS02001600YS02001601    1.00   0.13  0.01  0.00  0.86  0.00  0.00  0.00  0.59  0.00
  YS02001601YS02001602    1.00   0.13  0.01  0.00  0.87  0.00  0.00  0.00  0.00  0.00
  YS02001602YS02001605    1.00   0.13  0.00  0.00  0.87  0.00  0.00  0.00  0.00  0.00
  YS02001605YS02001607    1.00   0.14  0.00  0.00  0.86  0.00  0.00  0.00  0.00  0.00
  YS02001607YS02001610    1.00   0.13  0.01  0.00  0.86  0.00  0.00  0.00  0.01  0.00
  YS02001610YS02001613    1.00   0.13  0.00  0.00  0.87  0.00  0.00  0.00  0.00  0.00
  YS02001613YS02001616    1.00   0.13  0.00  0.00  0.87  0.00  0.00  0.00  0.00  0.00
  YS02001616YS02001619    1.00   0.13  0.00  0.00  0.87  0.00  0.00  0.00  0.00  0.00
  YS02001619YS02001622    1.00   0.13  0.00  0.00  0.87  0.00  0.00  0.00  0.29  0.00
  YS02001622YS02001625    1.00   0.13  0.00  0.00  0.87  0.00  0.00  0.00  0.03  0.00
  YS02001625YS02001629    1.00   0.13  0.04  0.00  0.19  0.00  0.64  0.00  0.00  0.00
  YS02001629YS02163301    1.00   0.15  0.01  0.00  0.84  0.00  0.00  0.00  0.00  0.00
  YS02001633YS02163601    1.00   0.00  0.01  0.00  0.99  0.00  0.00  0.00  0.14  0.00
  YS02001641YS02001644    1.00   0.00  0.01  0.00  0.99  0.00  0.00  0.00  0.00  0.00
  YS02001644YS02001647    1.00   0.00  0.16  0.00  0.84  0.00  0.00  0.00  0.00  0.00
  YS02001647YS02001649    1.00   0.00  0.16  0.00  0.57  0.27  0.00  0.00  0.56  0.00
  YS02001649YS02001757    1.00   0.00  0.00  0.00  0.89  0.11  0.00  0.00  0.41  0.00
  YS02001652YS02001649    1.00   0.00  0.00  0.00  0.97  0.03  0.00  0.00  0.71  0.00
  YS02001655YS02001652    1.00   0.00  0.00  0.00  0.21  0.01  0.00  0.78  0.05  0.00
  YS02001658YS02001655    1.00   0.00  0.14  0.00  0.69  0.17  0.00  0.00  0.66  0.00
  YS02001661YS02001658    1.00   0.14  0.00  0.00  0.53  0.33  0.00  0.00  0.71  0.00
  YS02001664YS02001661    1.00   0.13  0.00  0.00  0.77  0.10  0.00  0.00  0.85  0.00
  YS02001745YS02001748    1.00   0.00  0.00  0.00  0.13  0.01  0.00  0.86  0.06  0.00
  YS02001748YS02001751    1.00   0.00  0.00  0.00  0.86  0.14  0.00  0.00  0.77  0.00
  YS02001751YS02001754    1.00   0.00  0.00  0.00  0.20  0.00  0.00  0.80  0.03  0.00
  YS02001754YS02001757    1.00   0.00  0.00  0.00  1.00  0.00  0.00  0.00  0.79  0.00
  YS02001757CaochengTiaoxuchi    1.00   0.00  0.00  0.00  0.98  0.02  0.00  0.00  0.60  0.00
  YS02001759YS02001757    1.00   0.00  0.00  0.00  0.99  0.01  0.00  0.00  0.52  0.00
  YS02001762YS02001759    1.00   0.00  0.00  0.00  1.00  0.00  0.00  0.00  0.04  0.00
  YS02001765YS02001762    1.00   0.00  0.00  0.00  1.00  0.00  0.00  0.00  0.65  0.00
  YS02001767YS02001765    1.00   0.00  0.00  0.00  1.00  0.00  0.00  0.00  0.01  0.00
  YS02001770YS02001767    1.00   0.00  0.00  0.00  1.00  0.00  0.00  0.00  0.00  0.00
  YS02001774YS02001770    1.00   0.00  0.13  0.00  0.70  0.00  0.17  0.00  0.02  0.00
  YS02001779YS02001774    1.00   0.00  0.00  0.00  1.00  0.00  0.00  0.00  0.76  0.00
  YS02001783YS02001784    1.00   0.00  0.17  0.00  0.83  0.00  0.00  0.00  0.55  0.00
  YS02001784YS02001785    1.00   0.00  0.00  0.00  1.00  0.00  0.00  0.00  0.16  0.00
  YS02001786YS02001788    1.00   0.00  0.00  0.00  0.79  0.21  0.00  0.00  0.00  0.00
  YS02001788YS02001790    1.00   0.00  0.00  0.00  0.21  0.79  0.00  0.00  0.79  0.00
  YS02001790YS02001791    1.00   0.00  0.00  0.00  0.01  0.99  0.00  0.00  0.16  0.00
  YS02001791YS02001793    1.00   0.00  0.00  0.00  0.00  1.00  0.00  0.00  0.01  0.00
  YS02001793JiankangQianchi    1.00   0.00  0.00  0.00  0.97  0.03  0.00  0.00  0.95  0.00
  YS02001882YS02001884    1.00   0.15  0.01  0.00  0.85  0.00  0.00  0.00  0.00  0.00
  YS02001884YS02001887    1.00   0.06  0.05  0.00  0.89  0.00  0.00  0.00  0.00  0.00
  YS02001887YS02001890    1.00   0.00  0.00  0.00  0.97  0.00  0.03  0.00  0.00  0.00
  YS02001890YS02001895    1.00   0.00  0.15  0.00  0.84  0.00  0.00  0.00  0.00  0.00
  YS02001895YS02001898    1.00   0.16  0.00  0.00  0.83  0.00  0.01  0.00  0.00  0.00
  YS02001898YS02001901    1.00   0.16  0.00  0.00  0.84  0.00  0.00  0.00  0.01  0.00
  YS02001901YS02001904    1.00   0.16  0.00  0.00  0.84  0.00  0.00  0.00  0.00  0.00
  YS02001904YS02001907    1.00   0.00  0.16  0.00  0.84  0.00  0.00  0.00  0.00  0.00
  YS02001907YS02006553    1.00   0.00  0.02  0.00  0.98  0.00  0.00  0.00  0.00  0.00
  YS02001910YS02001907    1.00   0.00  0.00  0.00  0.97  0.00  0.00  0.03  0.12  0.00
  YS02001915YS02001910    1.00   0.00  0.00  0.00  0.97  0.03  0.00  0.00  0.14  0.00
  YS02001918YS02001915    1.00   0.00  0.01  0.00  0.98  0.02  0.00  0.00  0.73  0.00
  YS02001920YS02001918    1.00   0.00  0.01  0.00  0.99  0.00  0.00  0.00  0.00  0.00
  YS02001923YS02001920    1.00   0.00  0.00  0.00  1.00  0.00  0.00  0.00  0.91  0.00
  YS02001926YS02001923    1.00   0.00  0.07  0.00  0.08  0.00  0.85  0.00  0.00  0.00
  YS02001929YS02001926    1.00   0.00  0.13  0.00  0.87  0.00  0.00  0.00  0.80  0.00
  YS02006553YS02006556    1.00   0.01  0.00  0.00  0.99  0.00  0.00  0.00  0.03  0.00
  YS02006556YS02006558    1.00   0.00  0.00  0.00  1.00  0.00  0.00  0.00  0.00  0.00
  YS02006558YS02006561    1.00   0.17  0.00  0.00  0.07  0.76  0.00  0.00  0.18  0.00
  YS02006561YS02001783    1.00   0.17  0.00  0.00  0.10  0.73  0.00  0.00  0.67  0.00
  YS02163301YS02001633    1.00   0.00  0.15  0.00  0.85  0.00  0.00  0.00  0.00  0.00
  YS02163601YS02164001    1.00   0.00  0.08  0.00  0.92  0.00  0.00  0.00  0.00  0.00
  YS02164001YS02001641    1.00   0.01  0.07  0.00  0.92  0.00  0.00  0.00  0.05  0.00
  
  
  *************************
  Conduit Surcharge Summary
  *************************
  
  ----------------------------------------------------------------------------
                                                           Hours        Hours 
                         --------- Hours Full --------   Above Full   Capacity
  Conduit                Both Ends  Upstream  Dnstream   Normal Flow   Limited
  ----------------------------------------------------------------------------
  WS02003072WS02003073        0.01      0.01      0.01      1.40         0.01
  WS02004403WS02004404        0.01      0.01      0.01      0.01         0.01
  WS02004404WS02004405        0.01      0.01      0.01      4.44         0.01
  WS02004405WS02004406        0.01      0.01      0.01      0.65         0.01
  WS02006109WS02006110        0.85      0.85      2.53      0.95         0.01
  WS02006110WS02006113        0.01      0.01      2.49      0.01         0.01
  WS02006111WS02006112        0.01      0.01      3.10      0.01         0.01
  WS02006112WS02006115        0.01      0.01      0.95      0.01         0.01
  WS02006228WS02006109        2.43      2.53      2.43      3.38         2.43
  WS02006229WS02006228        2.41      2.45      2.41      2.85         2.40
  WS02006230WS02006229        2.62      2.79      2.62      4.74         2.62
  WS02006231WS02006230        0.86      0.86      1.01      4.59         0.01
  WS02006232WS02006231        0.97      0.97      2.54      1.05         0.01
  WS02006234WS02006232        2.34      2.34      2.54      1.03         1.03
  WS02006235WS02006234        1.32      1.33      2.42      4.51         0.01
  WS02006238WS02006235        2.45      2.45      2.56      0.01         0.01
  WS02006239WS02006238        2.48      2.53      2.49      2.69         2.30
  WS02006240WS02006239        2.41      2.45      2.42      2.67         2.19
  WS02006242WS02006240        2.44      2.44      2.58      2.92         0.01
  WS02006243WS02006242        2.45      2.45      2.52      0.01         0.04
  WS02006245WS02006243        2.44      2.45      2.44      1.82         1.60
  WS02006247WS02006245        2.44      2.47      2.44      4.37         2.43
  WS02006248WS02006247        2.43      2.43      2.46      0.01         0.04
  WS02006249WS02006248        2.42      2.42      2.44      4.36         0.01
  WS02006251WS02006249        2.44      2.45      2.44      2.78         2.37
  WS02006252WS02006251        2.84      2.84      2.84      2.84         0.01
  WS02006256WS02006235        4.52      4.55      5.80      1.25         0.01
  YS02001580YS02001583        0.78      0.78      0.85      0.01         0.01
  YS02001583YS02001586        0.79      0.79      0.95      0.01         0.01
  YS02001586YS02001590        0.96      0.96      1.04      0.01         0.01
  YS02001590YS02001593        1.03      1.03      1.05      1.10         0.01
  YS02001593YS02001596        1.04      1.04      1.15      0.01         0.01
  YS02001596YS02001600        1.19      1.19      1.31      0.01         0.01
  YS02001600YS02001601        1.37      1.37      1.65      0.01         0.01
  YS02001601YS02001602        1.57      1.57      1.68      1.31         0.01
  YS02001602YS02001605        1.52      1.52      1.57      2.32         0.01
  YS02001605YS02001607        1.47      1.52      1.47      1.63         1.47
  YS02001607YS02001610        1.02      1.02      1.05      0.01         0.01
  YS02001610YS02001613        1.01      1.01      1.05      0.01         0.01
  YS02001613YS02001616        0.97      0.97      1.01      0.01         0.01
  YS02001616YS02001619        0.95      0.95      0.97      0.01         0.03
  YS02001619YS02001622        0.95      0.95      0.95      1.02         0.91
  YS02001622YS02001625        0.95      0.95      1.15      0.01         0.01
  YS02001625YS02001629        0.90      0.90      1.15      0.01         0.01
  YS02001629YS02163301        1.15      1.15      1.16      0.02         0.15
  YS02001633YS02163601        1.17      1.17      1.21      0.38         0.35
  YS02001641YS02001644        1.11      1.13      1.11      1.70         1.10
  YS02001644YS02001647        0.90      0.90      1.11      0.03         0.01
  YS02001647YS02001649        0.90      0.90      1.05      0.01         0.01
  YS02001649YS02001757        1.04      1.05      1.13      0.04         0.04
  YS02001652YS02001649        0.85      0.85      1.05      0.01         0.01
  YS02001655YS02001652        0.58      0.58      0.81      0.01         0.01
  YS02001658YS02001655        0.29      0.29      0.58      0.01         0.01
  YS02001661YS02001658        0.05      0.05      0.29      0.01         0.01
  YS02001664YS02001661        0.01      0.01      0.12      0.01         0.01
  YS02001745YS02001748        0.01      0.01      0.20      0.01         0.01
  YS02001748YS02001751        0.26      0.26      0.40      0.01         0.01
  YS02001751YS02001754        0.40      0.40      0.69      0.01         0.01
  YS02001754YS02001757        0.75      0.75      1.13      0.01         0.01
  YS02001757CaochengTiaoxuchi        1.05      1.13      2.21      0.46         0.36
  YS02001759YS02001757        1.02      1.02      1.13      0.06         0.06
  YS02001762YS02001759        0.98      0.98      1.02      0.01         0.01
  YS02001765YS02001762        0.93      0.93      0.98      0.01         0.01
  YS02001767YS02001765        0.88      0.88      0.93      0.01         0.02
  YS02001770YS02001767        0.88      0.88      0.88      0.66         0.61
  YS02001774YS02001770        0.85      0.85      0.95      0.01         0.01
  YS02001779YS02001774        0.67      0.67      0.95      0.01         0.01
  YS02001783YS02001784        0.64      0.67      0.64      0.81         0.64
  YS02001784YS02001785        0.54      0.64      0.54      1.08         0.54
  YS02001786YS02001788        0.01      0.54      0.01      0.93         0.01
  YS02001790YS02001791        0.01      0.01      0.01      0.63         0.01
  YS02001793JiankangQianchi        0.01      0.01      7.50      0.01         0.01
  YS02001882YS02001884        0.61      0.61      0.62      0.01         0.01
  YS02001884YS02001887        0.64      0.64      0.66      0.01         0.01
  YS02001887YS02001890        0.67      0.67      0.68      0.18         0.01
  YS02001890YS02001895        0.60      0.60      0.70      0.01         0.01
  YS02001895YS02001898        0.59      0.59      0.60      0.01         0.01
  YS02001898YS02001901        0.60      0.60      0.64      0.01         0.01
  YS02001901YS02001904        0.63      0.63      0.64      0.01         0.01
  YS02001904YS02001907        0.63      0.63      0.90      0.01         0.01
  YS02001907YS02006553        1.11      1.11      1.18      0.01         0.01
  YS02001910YS02001907        0.70      0.70      0.88      0.01         0.01
  YS02001915YS02001910        0.61      0.61      0.70      0.01         0.01
  YS02001918YS02001915        0.52      0.52      0.61      0.01         0.01
  YS02001920YS02001918        0.52      0.52      0.53      0.01         0.01
  YS02001923YS02001920        0.47      0.47      0.53      0.01         0.01
  YS02001926YS02001923        0.17      0.17      0.21      0.01         0.01
  YS02001929YS02001926        0.01      0.01      0.21      0.01         0.01
  YS02006553YS02006556        0.79      0.79      0.90      0.01         0.01
  YS02006556YS02006558        0.84      0.84      0.93      0.01         0.01
  YS02006558YS02006561        0.56      0.78      0.56      1.03         0.56
  YS02006561YS02001783        0.48      0.48      0.67      0.01         0.01
  YS02163301YS02001633        1.16      1.16      1.19      0.01         0.01
  YS02163601YS02164001        1.13      1.13      1.21      0.03         0.01
  YS02164001YS02001641        1.13      1.13      1.13      0.83         0.80
  
  
  ***************
  Pumping Summary
  ***************
  
  ---------------------------------------------------------------------------------------------------------
                                                  Min       Avg       Max     Total     Power    % Time Off
                        Percent   Number of      Flow      Flow      Flow    Volume     Usage    Pump Curve
  Pump                 Utilized   Start-Ups       LPS       LPS       LPS  10^6 ltr     Kw-hr    Low   High
  ---------------------------------------------------------------------------------------------------------
  CC-R1                   19.83           3      0.00    683.00    683.00     3.900     73.65    0.0    9.5
  CC-R2                   19.47           5      0.00    683.00    683.00     3.830     72.26    0.0    9.7
  CC-S1                   53.79           4      0.00    200.00    200.00     3.098     18.43    0.0    0.0
  CC-S2                   36.62           9      0.00    200.00    200.00     2.109     12.28    0.0    0.0
  JK-R1                    8.30          12      0.00   1000.00   1000.00     2.390     24.47    0.0    0.0
  JK-R2                    3.33          11      0.00   1000.00   1000.00     0.958      8.96    0.0    0.0
  JK-S                    15.61          14      0.00    300.00    300.00     1.348     22.11    0.0    0.0
  

  Analysis begun on:  Wed Apr 23 23:59:44 2025
  Analysis ended on:  Wed Apr 23 23:59:46 2025
  Total elapsed time: 00:00:02