
  EPA STORM WATER MANAGEMENT MODEL - VERSION 5.2 (Build 5.2.4)
  PYSWMM TOOLKIT API - VERSION v1.0 (2023-11-27)
  ------------------------------------------------------------

  WARNING 04: minimum elevation drop used for Conduit WS02004404WS02004405
  WARNING 03: negative offset ignored for Link YS02001904YS02001907
  
  ****************
  Analysis Options
  ****************
  Flow Units ............... LPS
  Process Models:
    Rainfall/Runoff ........ YES
    RDII ................... NO
    Snowmelt ............... NO
    Groundwater ............ NO
    Flow Routing ........... YES
    Ponding Allowed ........ NO
    Water Quality .......... NO
  Infiltration Method ...... HORTON
  Flow Routing Method ...... DYNWAVE
  Surcharge Method ......... EXTRAN
  Starting Date ............ 08/28/2015 08:00:00
  Ending Date .............. 08/28/2015 16:00:00
  Antecedent Dry Days ...... 8.0
  Report Time Step ......... 00:01:00
  Wet Time Step ............ 00:01:00
  Dry Time Step ............ 00:01:00
  Routing Time Step ........ 30.00 sec
  Variable Time Step ....... YES
  Maximum Trials ........... 8
  Number of Threads ........ 4
  Head Tolerance ........... 0.001500 m
  
  
  **************************        Volume         Depth
  Runoff Quantity Continuity     hectare-m            mm
  **************************     ---------       -------
  Total Precipitation ......         2.896        87.318
  Evaporation Loss .........         0.000         0.000
  Infiltration Loss ........         0.102         3.069
  Surface Runoff ...........         2.762        83.275
  Final Storage ............         0.033         0.995
  Continuity Error (%) .....        -0.025
  
  
  **************************        Volume        Volume
  Flow Routing Continuity        hectare-m      10^6 ltr
  **************************     ---------     ---------
  Dry Weather Inflow .......         0.025         0.251
  Wet Weather Inflow .......         2.762        27.622
  Groundwater Inflow .......         0.000         0.000
  RDII Inflow ..............         0.000         0.000
  External Inflow ..........         0.083         0.834
  External Outflow .........         1.855        18.554
  Flooding Loss ............         1.078        10.780
  Evaporation Loss .........         0.000         0.000
  Exfiltration Loss ........         0.000         0.000
  Initial Stored Volume ....         0.243         2.431
  Final Stored Volume ......         0.189         1.889
  Continuity Error (%) .....        -0.277
  
  
  *************************
  Highest Continuity Errors
  *************************
  Node YS02001583 (-14.33%)
  Node YS02001884 (4.68%)
  
  
  ***************************
  Time-Step Critical Elements
  ***************************
  Link WS02006252WS02006251 (43.40%)
  Link WS02004404WS02004405 (16.74%)
  Link WS02006238WS02006235 (10.12%)
  Link WS02006235WS02006234 (8.00%)
  Link YS02001791YS02001793 (7.43%)
  
  
  ********************************
  Highest Flow Instability Indexes
  ********************************
  Link WS02006113WS02006111 (54)
  Link WS02006111WS02006112 (28)
  Link WS02004404WS02004405 (24)
  Link WS02004403WS02004404 (21)
  Link WS02006238WS02006235 (21)
  
  
  *********************************
  Most Frequent Nonconverging Nodes
  *********************************
  Node CC-1 (10.66%)
  Node CC-2 (10.66%)
  Node JK-1 (10.66%)
  Node JK-2 (10.66%)
  Node WSC (10.66%)
  
  
  *************************
  Routing Time Step Summary
  *************************
  Minimum Time Step           :     0.00 sec
  Average Time Step           :     1.96 sec
  Maximum Time Step           :     7.04 sec
  % of Time in Steady State   :     0.00
  Average Iterations per Step :     3.12
  % of Steps Not Converging   :    10.66
  Time Step Frequencies       :
     30.000 - 13.228 sec      :     0.00 %
     13.228 -  5.833 sec      :     9.31 %
      5.833 -  2.572 sec      :    15.12 %
      2.572 -  1.134 sec      :    27.44 %
      1.134 -  0.500 sec      :    48.12 %
  
  
  ***************************
  Subcatchment Runoff Summary
  ***************************
  
  ------------------------------------------------------------------------------------------------------------------------------
                            Total      Total      Total      Total     Imperv       Perv      Total       Total     Peak  Runoff
                           Precip      Runon       Evap      Infil     Runoff     Runoff     Runoff      Runoff   Runoff   Coeff
  Subcatchment                 mm         mm         mm         mm         mm         mm         mm    10^6 ltr      LPS
  ------------------------------------------------------------------------------------------------------------------------------
  sub60                     87.32       0.00       0.00       1.86      75.65       8.62      84.27        1.11   682.43   0.965
  sub61                     87.32       0.00       0.00       2.69      71.35      12.15      83.51        1.53   943.71   0.956
  sub62                     87.32       0.00       0.00       1.24      79.05       5.75      84.80        2.32  1331.03   0.971
  sub63                     87.32       0.00       0.00       4.94      61.03      20.38      81.42        1.85  1048.13   0.932
  sub64                     87.32       0.00       0.00       2.50      73.02      10.60      83.62        2.01  1081.05   0.958
  sub65                     87.32       0.00       0.00       2.17      74.72       9.19      83.91        2.31  1207.61   0.961
  sub66                     87.32       0.00       0.00       6.06      60.92      19.26      80.19        3.74  1572.04   0.918
  sub67                     87.32       0.00       0.00       1.19      79.10       5.79      84.89        1.58  1032.23   0.972
  sub68                     87.32       0.00       0.00       2.23      73.91      10.00      83.91        2.31  1365.14   0.961
  sub69                     87.32       0.00       0.00       1.99      74.11      11.11      85.22        3.16  1611.79   0.976
  sub70                     87.32       0.00       0.00       6.56      57.47      23.13      80.60        2.33   885.04   0.923
  sub71                     87.32       0.00       0.00       1.27      79.01       5.72      84.73        2.22  1171.90   0.970
  sub72                     87.32       0.00       0.00       1.13      79.81       4.98      84.79        1.17   565.51   0.971
  
  
  ******************
  Node Depth Summary
  ******************
  
  ---------------------------------------------------------------------------------
                                 Average  Maximum  Maximum  Time of Max    Reported
                                   Depth    Depth      HGL   Occurrence   Max Depth
  Node                 Type       Meters   Meters   Meters  days hr:min      Meters
  ---------------------------------------------------------------------------------
  WS02003060           JUNCTION     0.27     0.39     5.32     0  02:01        0.38
  WS02003066           JUNCTION     0.22     0.30     5.85     0  02:00        0.30
  WS02003067           JUNCTION     0.55     0.70     6.02     0  02:00        0.70
  WS02003069           JUNCTION     0.30     0.43     5.02     0  02:02        0.43
  WS02003072           JUNCTION     0.36     0.50     4.87     0  02:02        0.50
  WS02003073           JUNCTION     0.21     0.30     4.36     0  02:19        0.30
  WS02004401           JUNCTION     0.66     0.88     6.88     0  02:14        0.88
  WS02004402           JUNCTION     0.69     0.91     6.87     0  02:14        0.91
  WS02004403           JUNCTION     0.71     0.92     6.85     0  02:11        0.92
  WS02004404           JUNCTION     0.79     1.06     6.91     0  02:09        1.04
  WS02004405           JUNCTION     0.77     0.97     6.82     0  01:53        0.97
  WS02004406           JUNCTION     0.78     0.96     6.79     0  01:59        0.96
  WS02004407           JUNCTION     0.20     0.30     6.61     0  01:59        0.30
  WS02004409           JUNCTION     0.45     0.67     6.44     0  01:59        0.67
  WS02004410           JUNCTION     0.47     0.68     6.40     0  01:59        0.68
  WS02004411           JUNCTION     0.49     0.69     6.37     0  02:00        0.69
  WS02004412           JUNCTION     0.51     0.70     6.34     0  02:00        0.70
  WS02004413           JUNCTION     0.67     0.86     6.33     0  02:00        0.86
  WS02006109           JUNCTION     0.71     1.25     7.87     0  02:19        1.03
  WS02006110           JUNCTION     0.71     1.17     7.75     0  02:19        1.01
  WS02006111           JUNCTION     0.20     0.29     7.00     0  03:04        0.29
  WS02006112           JUNCTION     0.82     1.09     6.97     0  02:19        1.08
  WS02006113           JUNCTION     0.31     0.46     7.35     0  03:04        0.46
  WS02006115           JUNCTION     0.54     0.78     6.92     0  02:12        0.78
  WS02006116           JUNCTION     0.63     0.86     6.90     0  02:14        0.86
  WS02006228           JUNCTION     0.71     1.51     8.16     0  02:19        1.05
  WS02006229           JUNCTION     0.69     1.58     8.27     0  02:19        1.13
  WS02006230           JUNCTION     0.70     1.92     8.66     0  02:19        1.20
  WS02006231           JUNCTION     0.48     1.46     8.58     0  02:19        1.08
  WS02006232           JUNCTION     0.63     1.66     8.70     0  05:21        1.27
  WS02006234           JUNCTION     0.56     1.46     8.62     0  02:19        1.18
  WS02006235           JUNCTION     0.60     1.49     8.65     0  02:19        1.26
  WS02006238           JUNCTION     0.63     1.52     8.66     0  02:19        1.30
  WS02006239           JUNCTION     0.61     1.47     8.68     0  02:19        1.28
  WS02006240           JUNCTION     0.57     1.39     8.69     0  02:19        1.23
  WS02006242           JUNCTION     0.65     1.55     8.82     0  01:32        1.30
  WS02006243           JUNCTION     0.55     1.48     8.90     0  01:32        1.19
  WS02006245           JUNCTION     0.55     1.26     8.74     0  01:39        1.16
  WS02006247           JUNCTION     0.57     1.24     8.74     0  01:39        1.17
  WS02006248           JUNCTION     0.53     1.10     8.69     0  01:33        1.10
  WS02006249           JUNCTION     0.56     1.09     8.69     0  01:33        1.09
  WS02006251           JUNCTION     0.55     1.92     9.59     0  01:40        1.13
  WS02006252           JUNCTION     0.40     1.50     9.74     0  00:00        0.72
  WS02006256           JUNCTION     1.08     2.35     9.28     0  00:00        2.35
  WSF200               JUNCTION     0.20     0.29     5.53     0  02:01        0.29
  YS02001580           JUNCTION     0.11     1.05     9.59     0  01:33        0.77
  YS02001583           JUNCTION     0.15     1.14     9.64     0  01:33        0.82
  YS02001586           JUNCTION     0.22     1.13     9.30     0  01:32        1.13
  YS02001590           JUNCTION     0.32     1.40     9.26     0  01:31        1.38
  YS02001593           JUNCTION     0.26     1.35     9.21     0  01:33        1.29
  YS02001596           JUNCTION     0.34     1.69     9.11     0  01:33        1.65
  YS02001600           JUNCTION     0.40     1.87     9.00     0  01:33        1.87
  YS02001601           JUNCTION     0.59     2.06     8.90     0  01:32        2.06
  YS02001602           JUNCTION     0.50     1.87     8.77     0  01:33        1.87
  YS02001605           JUNCTION     0.47     1.78     8.68     0  02:16        1.78
  YS02001607           JUNCTION     0.46     1.68     8.53     0  01:52        1.68
  YS02001610           JUNCTION     0.51     1.68     8.48     0  01:33        1.68
  YS02001613           JUNCTION     0.47     1.70     8.54     0  01:33        1.70
  YS02001616           JUNCTION     0.40     1.61     8.52     0  01:33        1.61
  YS02001619           JUNCTION     0.38     1.61     8.54     0  01:33        1.61
  YS02001622           JUNCTION     0.37     1.62     8.52     0  01:33        1.59
  YS02001625           JUNCTION     0.64     1.78     8.38     0  01:33        1.78
  YS02001629           JUNCTION     0.49     1.85     8.40     0  01:33        1.85
  YS02001633           JUNCTION     0.57     2.08     8.53     0  02:16        2.08
  YS02001641           JUNCTION     0.56     2.05     8.48     0  02:16        2.05
  YS02001644           JUNCTION     0.55     1.92     8.35     0  01:35        1.92
  YS02001647           JUNCTION     0.35     1.80     8.41     0  01:36        1.75
  YS02001649           JUNCTION     0.40     2.05     8.44     0  01:36        2.02
  YS02001652           JUNCTION     0.29     2.16     8.76     0  01:36        2.01
  YS02001655           JUNCTION     0.24     2.20     9.05     0  01:36        1.67
  YS02001658           JUNCTION     0.17     2.30     9.44     0  01:36        1.45
  YS02001661           JUNCTION     0.18     2.46     9.86     0  01:36        1.26
  YS02001664           JUNCTION     0.06     2.31    10.23     0  01:36        0.80
  YS02001745           JUNCTION     0.09     2.35     9.87     0  01:36        0.83
  YS02001748           JUNCTION     0.16     2.27     9.35     0  01:36        1.26
  YS02001751           JUNCTION     0.21     2.20     9.08     0  01:36        1.46
  YS02001754           JUNCTION     0.27     2.20     8.81     0  01:36        1.83
  YS02001757           JUNCTION     0.42     2.21     8.47     0  01:36        2.05
  YS02001759           JUNCTION     0.37     2.20     8.57     0  01:36        2.04
  YS02001762           JUNCTION     0.36     2.15     8.55     0  01:36        1.99
  YS02001765           JUNCTION     0.34     2.10     8.55     0  01:36        1.95
  YS02001767           JUNCTION     0.33     2.03     8.52     0  01:36        1.93
  YS02001770           JUNCTION     0.34     1.95     8.44     0  01:35        1.95
  YS02001774           JUNCTION     0.41     2.05     8.47     0  01:35        2.00
  YS02001779           JUNCTION     0.25     1.68     8.37     0  01:35        1.68
  YS02001783           JUNCTION     0.25     1.48     7.62     0  01:34        1.27
  YS02001784           JUNCTION     0.26     1.31     7.38     0  01:34        1.15
  YS02001786           JUNCTION     0.22     0.98     7.01     0  01:34        0.89
  YS02001788           JUNCTION     0.16     0.63     6.60     0  01:36        0.62
  YS02001790           JUNCTION     0.18     0.73     6.37     0  01:36        0.72
  YS02001791           JUNCTION     0.12     0.44     5.91     0  01:40        0.43
  YS02001793           JUNCTION     0.06     0.30     5.13     0  01:46        0.30
  YS02001882           JUNCTION     0.33     1.83     8.55     0  01:33        1.66
  YS02001884           JUNCTION     0.42     1.93     8.55     0  01:33        1.77
  YS02001887           JUNCTION     0.50     1.93     8.47     0  01:33        1.85
  YS02001890           JUNCTION     0.53     1.81     8.32     0  01:33        1.81
  YS02001895           JUNCTION     0.29     1.60     8.35     0  01:34        1.56
  YS02001898           JUNCTION     0.30     1.63     8.37     0  01:33        1.56
  YS02001901           JUNCTION     0.42     1.73     8.34     0  01:34        1.67
  YS02001904           JUNCTION     0.40     1.68     8.31     0  01:34        1.64
  YS02001907           JUNCTION     0.72     1.96     8.25     0  01:34        1.96
  YS02001910           JUNCTION     0.52     2.02     8.53     0  01:35        1.94
  YS02001915           JUNCTION     0.33     1.99     8.71     0  01:35        1.89
  YS02001918           JUNCTION     0.19     1.81     8.88     0  01:35        1.57
  YS02001920           JUNCTION     0.27     2.14     9.15     0  01:35        1.66
  YS02001923           JUNCTION     0.15     2.03     9.29     0  01:35        1.42
  YS02001926           JUNCTION     0.18     1.90     9.35     0  01:35        1.26
  YS02001929           JUNCTION     0.11     1.78     9.47     0  01:35        1.03
  YS02006553           JUNCTION     0.73     2.04     8.32     0  01:34        1.98
  YS02006556           JUNCTION     0.70     2.10     8.41     0  01:34        1.98
  YS02006558           JUNCTION     0.74     2.18     8.44     0  01:34        2.04
  YS02006561           JUNCTION     0.16     1.14     7.80     0  01:34        0.95
  YS02163301           JUNCTION     0.51     2.00     8.52     0  02:16        2.00
  YS02163601           JUNCTION     0.61     2.08     8.48     0  02:16        2.08
  YS02164001           JUNCTION     0.54     2.08     8.54     0  02:16        2.08
  CC-1                 OUTFALL      0.00     0.00     0.00     0  00:00        0.00
  CC-2                 OUTFALL      0.00     0.00     0.00     0  00:00        0.00
  JK-1                 OUTFALL      0.00     0.00     0.00     0  00:00        0.00
  JK-2                 OUTFALL      0.00     0.00     0.00     0  00:00        0.00
  WSC                  OUTFALL      0.21     0.30     0.97     0  02:19        0.30
  CC-storage           STORAGE      0.89     1.77     7.27     0  02:22        1.77
  JK-storage           STORAGE      2.72     4.23     5.03     0  02:01        4.19
  
  
  *******************
  Node Inflow Summary
  *******************
  
  -------------------------------------------------------------------------------------------------
                                  Maximum  Maximum                  Lateral       Total        Flow
                                  Lateral    Total  Time of Max      Inflow      Inflow     Balance
                                   Inflow   Inflow   Occurrence      Volume      Volume       Error
  Node                 Type           LPS      LPS  days hr:min    10^6 ltr    10^6 ltr     Percent
  -------------------------------------------------------------------------------------------------
  WS02003060           JUNCTION     16.53   558.17     0  02:01       0.476        6.78       0.028
  WS02003066           JUNCTION      0.00   541.25     0  02:00           0         6.3       0.020
  WS02003067           JUNCTION      0.00   541.15     0  02:00           0        6.31       0.064
  WS02003069           JUNCTION      0.32   558.16     0  02:01     0.00922        6.78       0.051
  WS02003072           JUNCTION      0.00   557.65     0  02:02           0        6.78       0.094
  WS02003073           JUNCTION      1.82   559.20     0  02:19      0.0524        6.83       0.073
  WS02004401           JUNCTION      0.00   542.22     0  02:15           0        6.39       0.154
  WS02004402           JUNCTION      0.00   543.08     0  02:43           0        6.38       0.157
  WS02004403           JUNCTION      0.00   543.31     0  02:14           0        6.37       0.152
  WS02004404           JUNCTION      0.16   564.97     0  02:06     0.00467        6.37       0.062
  WS02004405           JUNCTION      0.04   611.85     0  02:05      0.0011        6.36       0.126
  WS02004406           JUNCTION      0.00   547.99     0  01:52           0        6.36       0.317
  WS02004407           JUNCTION      0.00   543.17     0  01:59           0        6.34       0.014
  WS02004409           JUNCTION      0.00   542.66     0  01:59           0        6.34       0.036
  WS02004410           JUNCTION      0.00   542.27     0  01:59           0        6.33       0.062
  WS02004411           JUNCTION      0.00   541.96     0  01:59           0        6.33       0.081
  WS02004412           JUNCTION      0.00   541.72     0  02:00           0        6.32       0.111
  WS02004413           JUNCTION      0.00   541.58     0  02:00           0        6.32       0.198
  WS02006109           JUNCTION      1.23   565.59     0  02:19      0.0354        6.43       0.131
  WS02006110           JUNCTION      0.00   564.69     0  02:19           0        6.43       0.095
  WS02006111           JUNCTION      0.00   561.11     0  03:02           0        6.42       0.010
  WS02006112           JUNCTION      0.00   545.99     0  03:04           0        6.42       0.265
  WS02006113           JUNCTION      0.00   569.73     0  01:34           0        6.42       0.025
  WS02006115           JUNCTION      0.00   554.86     0  03:01           0         6.4       0.096
  WS02006116           JUNCTION      0.00   541.35     0  02:12           0        6.39       0.027
  WS02006228           JUNCTION      0.00   563.85     0  02:19           0         6.4       0.044
  WS02006229           JUNCTION      0.00   563.11     0  02:19           0        6.41       0.064
  WS02006230           JUNCTION     10.28   581.88     0  03:20       0.296        6.41       0.052
  WS02006231           JUNCTION      0.00   572.68     0  03:00           0        6.11       0.002
  WS02006232           JUNCTION      0.00   571.83     0  03:00           0        6.12       0.123
  WS02006234           JUNCTION      0.00   566.84     0  03:00           0        6.11      -0.118
  WS02006235           JUNCTION      0.00   567.80     0  01:33           0        6.14       0.125
  WS02006238           JUNCTION      0.00   424.13     0  02:15           0        5.02      -0.162
  WS02006239           JUNCTION      0.00   422.10     0  02:15           0           5      -0.161
  WS02006240           JUNCTION      0.00   418.87     0  02:15           0        4.99      -0.060
  WS02006242           JUNCTION      0.00   419.01     0  02:25           0        4.98      -0.043
  WS02006243           JUNCTION      0.00   418.53     0  02:15           0        4.98      -0.042
  WS02006245           JUNCTION      0.00   419.16     0  02:15           0        4.99       0.192
  WS02006247           JUNCTION      0.00   419.26     0  02:15           0        4.99       0.003
  WS02006248           JUNCTION      0.00   420.15     0  02:15           0        4.99       0.036
  WS02006249           JUNCTION      0.00   464.64     0  01:25           0        5.33       0.132
  WS02006251           JUNCTION      0.08   412.00     0  01:40     0.00222        5.33       0.001
  WS02006252           JUNCTION      0.00   400.00     0  00:00           0        5.32      -0.045
  WS02006256           JUNCTION      0.00   300.00     0  00:00           0        1.67      -0.280
  WSF200               JUNCTION      0.00   541.33     0  02:01           0         6.3       0.005
  YS02001580           JUNCTION      0.00   147.39     0  01:32           0     0.00444       3.529
  YS02001583           JUNCTION      0.00   243.07     0  01:33           0      0.0145     -12.536
  YS02001586           JUNCTION    885.04   885.23     0  01:42        2.33        2.34       0.066
  YS02001590           JUNCTION      0.00   318.02     0  02:04           0        1.63      -0.029
  YS02001593           JUNCTION      0.00   318.12     0  02:04           0        1.63       0.004
  YS02001596           JUNCTION      0.00   318.01     0  02:04           0        1.63      -0.008
  YS02001600           JUNCTION      0.00   318.15     0  02:04           0        1.63       0.004
  YS02001601           JUNCTION   1611.79  1929.38     0  01:40        3.15        4.79       0.011
  YS02001602           JUNCTION      0.00   572.29     0  01:32           0        2.63       0.017
  YS02001605           JUNCTION      0.00   572.18     0  01:32           0        2.45       0.021
  YS02001607           JUNCTION      0.00   572.75     0  01:32           0        2.45       0.073
  YS02001610           JUNCTION      0.00   891.29     0  01:42           0        2.94       0.062
  YS02001613           JUNCTION      0.00   554.79     0  01:42           0        2.25       0.069
  YS02001616           JUNCTION      0.00   554.88     0  01:42           0        2.25       0.015
  YS02001619           JUNCTION   1572.04  1572.04     0  01:42        3.74        5.49      -0.008
  YS02001622           JUNCTION      0.00  1020.88     0  01:41           0        4.99      -0.015
  YS02001625           JUNCTION      0.00  1440.91     0  01:43           0        5.33       0.166
  YS02001629           JUNCTION      0.00   928.12     0  01:33           0        3.91      -0.022
  YS02001633           JUNCTION   1207.81  1441.64     0  01:34        2.32        5.75       0.055
  YS02001641           JUNCTION      0.00  1441.39     0  01:34           0         5.3       0.051
  YS02001644           JUNCTION   1081.09  1954.94     0  01:34        2.01        7.31       0.033
  YS02001647           JUNCTION      0.00  1956.16     0  01:34           0        6.46       0.005
  YS02001649           JUNCTION      0.00  2208.86     0  01:35           0        8.32       0.003
  YS02001652           JUNCTION      0.00  1074.19     0  01:37           0        1.85      -0.081
  YS02001655           JUNCTION      0.15  1074.33     0  01:37     0.00443        1.85      -0.094
  YS02001658           JUNCTION      0.00  1074.08     0  01:37           0        1.86      -0.062
  YS02001661           JUNCTION      0.00  1071.56     0  01:37           0        1.86       0.006
  YS02001664           JUNCTION   1048.13  1048.13     0  01:39        1.85        1.85      -0.030
  YS02001745           JUNCTION    682.43   749.32     0  01:36        1.11        1.11       0.179
  YS02001748           JUNCTION      0.04   822.67     0  01:35      0.0013        1.11      -0.325
  YS02001751           JUNCTION      0.01   688.72     0  01:39    0.000317        1.12       0.023
  YS02001754           JUNCTION      0.26   688.94     0  01:37     0.00749        1.13      -0.169
  YS02001757           JUNCTION      0.00  3622.71     0  01:36           0        12.9       0.039
  YS02001759           JUNCTION    943.75  1572.92     0  01:36        1.53        3.44      -0.018
  YS02001762           JUNCTION      0.00   829.60     0  01:36           0        1.91      -0.019
  YS02001765           JUNCTION      0.00   830.42     0  01:36           0        1.91       0.016
  YS02001767           JUNCTION      0.54   831.06     0  01:36      0.0154        1.91      -0.009
  YS02001770           JUNCTION   1331.18  1331.18     0  01:39        2.33        2.37      -0.019
  YS02001774           JUNCTION      0.00   804.17     0  01:39           0       0.496       0.189
  YS02001779           JUNCTION      0.01   803.35     0  01:39    0.000144       0.449      -0.349
  YS02001783           JUNCTION      0.00  1170.48     0  01:36           0        4.93       0.005
  YS02001784           JUNCTION      1.06  1171.65     0  01:37      0.0305        4.96       0.009
  YS02001786           JUNCTION      0.06  1171.80     0  01:37     0.00162        4.96       0.015
  YS02001788           JUNCTION      0.07  1171.91     0  01:37     0.00204        4.96       0.006
  YS02001790           JUNCTION      0.15  1184.86     0  01:36     0.00446        4.97       0.024
  YS02001791           JUNCTION      0.00  1300.43     0  01:36           0        4.96      -0.032
  YS02001793           JUNCTION      0.00  1257.92     0  01:40           0        4.97       0.005
  YS02001882           JUNCTION      0.00    99.45     0  01:33           0      0.0136       3.414
  YS02001884           JUNCTION      0.00   131.75     0  01:33           0      0.0501       4.910
  YS02001887           JUNCTION   1032.68  1032.85     0  01:38        1.59        1.63       0.272
  YS02001890           JUNCTION      0.00  1032.95     0  01:38           0        1.58       0.316
  YS02001895           JUNCTION      0.00   551.73     0  01:34           0        1.35       0.113
  YS02001898           JUNCTION      0.00   553.53     0  01:34           0        1.35      -0.000
  YS02001901           JUNCTION      0.00   558.09     0  01:34           0        1.35       0.255
  YS02001904           JUNCTION      0.00   556.94     0  01:34           0        1.36       0.219
  YS02001907           JUNCTION      0.00  2448.92     0  01:40           0        4.87       0.361
  YS02001910           JUNCTION      0.00  1742.88     0  01:40           0        3.46       0.213
  YS02001915           JUNCTION   1171.92  1742.51     0  01:40        2.22        3.51       0.031
  YS02001918           JUNCTION      0.00   617.11     0  01:34           0        1.33       0.001
  YS02001920           JUNCTION      2.87   622.94     0  01:34      0.0827        1.31       0.055
  YS02001923           JUNCTION      0.04   792.54     0  01:34     0.00109        1.21      -0.109
  YS02001926           JUNCTION      0.05  1117.17     0  01:34      0.0015        1.19      -0.172
  YS02001929           JUNCTION    565.51   960.17     0  01:35        1.17        1.17      -0.082
  YS02006553           JUNCTION      0.00   792.24     0  02:06           0        2.75       0.444
  YS02006556           JUNCTION      0.00   792.74     0  02:05           0        2.76       0.295
  YS02006558           JUNCTION   1366.02  1366.02     0  01:39        2.33        5.01       0.075
  YS02006561           JUNCTION      0.00  1192.44     0  01:34           0        4.93      -0.007
  YS02163301           JUNCTION      0.00   911.25     0  01:34           0        3.89       0.038
  YS02163601           JUNCTION      0.11  1440.50     0  01:34     0.00317         5.3       0.089
  YS02164001           JUNCTION      0.00  1438.93     0  01:34           0         5.3       0.039
  CC-1                 OUTFALL       0.00   683.00     0  00:00           0        4.47       0.000
  CC-2                 OUTFALL       0.00   683.00     0  00:00           0        3.91       0.000
  JK-1                 OUTFALL       0.00  1000.00     0  00:00           0        1.75       0.000
  JK-2                 OUTFALL       0.00  1000.00     0  00:00           0        1.61       0.000
  WSC                  OUTFALL       0.00   559.08     0  02:19           0        6.82       0.000
  CC-storage           STORAGE       0.00  3622.64     0  01:36           0        15.1      -0.203
  JK-storage           STORAGE       0.00  1299.62     0  01:42           0        5.12      -0.167
  
  
  **********************
  Node Surcharge Summary
  **********************
  
  Surcharging occurs when water rises above the top of the highest conduit.
  ---------------------------------------------------------------------
                                               Max. Height   Min. Depth
                                   Hours       Above Crown    Below Rim
  Node                 Type      Surcharged         Meters       Meters
  ---------------------------------------------------------------------
  WS02004404           JUNCTION        0.10          0.057        2.723
  WS02006109           JUNCTION        2.69          0.431        1.389
  WS02006110           JUNCTION        1.19          0.256        1.594
  WS02006112           JUNCTION        1.31          0.087        1.593
  WS02006228           JUNCTION        2.67          0.677        1.523
  WS02006229           JUNCTION        2.70          0.777        1.673
  WS02006230           JUNCTION        1.18          0.838        0.732
  WS02006231           JUNCTION        1.29          0.746        0.784
  WS02006232           JUNCTION        2.80          0.958        0.522
  WS02006234           JUNCTION        1.60          0.739        0.501
  WS02006235           JUNCTION        2.70          0.776        0.514
  WS02006238           JUNCTION        2.75          0.797        0.633
  WS02006239           JUNCTION        2.66          0.730        0.560
  WS02006240           JUNCTION        2.63          0.684        0.706
  WS02006242           JUNCTION        2.73          0.820        0.000
  WS02006243           JUNCTION        2.60          0.770        0.000
  WS02006245           JUNCTION        2.60          0.546        0.304
  WS02006247           JUNCTION        2.62          0.527        0.233
  WS02006248           JUNCTION        2.58          0.380        0.000
  WS02006249           JUNCTION        2.59          0.390        0.000
  WS02006251           JUNCTION        1.32          0.890        0.290
  WS02006252           JUNCTION        3.11          1.100        0.000
  WS02006256           JUNCTION        5.53          2.050        0.000
  YS02001580           JUNCTION        0.87          0.450        0.000
  YS02001583           JUNCTION        0.88          0.500        0.000
  YS02001586           JUNCTION        1.06          0.510        0.000
  YS02001590           JUNCTION        1.15          0.750        0.000
  YS02001593           JUNCTION        1.15          0.727        0.113
  YS02001596           JUNCTION        1.28          0.962        0.108
  YS02001600           JUNCTION        1.45          1.190        0.000
  YS02001601           JUNCTION        1.73          1.440        0.000
  YS02001602           JUNCTION        1.66          1.270        0.000
  YS02001605           JUNCTION        1.62          1.180        0.000
  YS02001607           JUNCTION        1.15          0.680        0.000
  YS02001610           JUNCTION        1.18          0.680        0.000
  YS02001613           JUNCTION        1.15          0.700        0.000
  YS02001616           JUNCTION        1.10          0.610        0.000
  YS02001619           JUNCTION        1.08          0.610        0.000
  YS02001622           JUNCTION        1.08          0.620        0.000
  YS02001625           JUNCTION        1.29          0.780        0.000
  YS02001629           JUNCTION        1.02          0.470        0.000
  YS02001633           JUNCTION        1.33          1.060        0.000
  YS02001641           JUNCTION        1.29          1.048        0.052
  YS02001644           JUNCTION        1.26          0.920        0.000
  YS02001647           JUNCTION        1.03          0.804        0.096
  YS02001649           JUNCTION        1.20          1.050        0.000
  YS02001652           JUNCTION        0.95          1.130        0.000
  YS02001655           JUNCTION        0.70          1.200        0.000
  YS02001658           JUNCTION        0.35          1.300        0.000
  YS02001661           JUNCTION        0.11          1.390        0.000
  YS02001664           JUNCTION        0.01          1.310        0.000
  YS02001745           JUNCTION        0.01          1.350        0.000
  YS02001748           JUNCTION        0.26          1.190        0.000
  YS02001751           JUNCTION        0.50          1.200        0.000
  YS02001754           JUNCTION        0.84          1.150        0.000
  YS02001757           JUNCTION        1.28          1.210        0.000
  YS02001759           JUNCTION        1.18          1.205        0.005
  YS02001762           JUNCTION        1.14          1.150        0.000
  YS02001765           JUNCTION        1.08          1.100        0.000
  YS02001767           JUNCTION        1.04          1.030        0.000
  YS02001770           JUNCTION        1.00          0.920        0.000
  YS02001774           JUNCTION        1.12          1.050        0.000
  YS02001779           JUNCTION        0.81          0.680        0.000
  YS02001783           JUNCTION        0.73          0.681        0.919
  YS02001784           JUNCTION        0.71          0.508        0.982
  YS02001786           JUNCTION        0.59          0.183        1.247
  YS02001882           JUNCTION        0.67          0.830        0.000
  YS02001884           JUNCTION        0.68          0.870        0.000
  YS02001887           JUNCTION        0.72          0.882        0.068
  YS02001890           JUNCTION        0.73          0.760        0.000
  YS02001895           JUNCTION        0.66          0.602        0.148
  YS02001898           JUNCTION        0.65          0.602        0.138
  YS02001901           JUNCTION        0.71          0.735        0.135
  YS02001904           JUNCTION        0.69          0.680        0.170
  YS02001907           JUNCTION        0.96          0.950        0.000
  YS02001910           JUNCTION        0.77          1.024        0.076
  YS02001915           JUNCTION        0.67          0.993        0.007
  YS02001918           JUNCTION        0.57          0.810        0.000
  YS02001920           JUNCTION        0.59          1.140        0.000
  YS02001923           JUNCTION        0.21          0.820        0.000
  YS02001926           JUNCTION        0.24          0.900        0.000
  YS02001929           JUNCTION        0.04          0.780        0.000
  YS02006553           JUNCTION        0.99          1.037        0.153
  YS02006556           JUNCTION        0.86          1.060        0.290
  YS02006558           JUNCTION        0.85          1.075        0.325
  YS02006561           JUNCTION        0.53          0.337        0.813
  YS02163301           JUNCTION        1.31          0.999        0.031
  YS02163601           JUNCTION        1.37          1.080        0.000
  YS02164001           JUNCTION        1.29          1.083        0.017
  
  
  *********************
  Node Flooding Summary
  *********************
  
  Flooding refers to all water that overflows a node, whether it ponds or not.
  --------------------------------------------------------------------------
                                                             Total   Maximum
                                 Maximum   Time of Max       Flood    Ponded
                        Hours       Rate    Occurrence      Volume     Depth
  Node                 Flooded       LPS   days hr:min    10^6 ltr    Meters
  --------------------------------------------------------------------------
  WS02006242              0.01     15.04      0  01:32       0.000     0.000
  WS02006243              0.01     64.59      0  01:32       0.000     0.000
  WS02006248              0.01     23.13      0  01:39       0.000     0.000
  WS02006249              1.30    131.87      0  01:40       0.325     0.000
  WS02006252              0.01    245.63      0  00:00       0.000     0.000
  WS02006256              1.54    293.19      0  00:00       0.557     0.000
  YS02001580              0.01     55.34      0  01:33       0.000     0.000
  YS02001583              0.01    152.13      0  01:33       0.000     0.000
  YS02001586              0.71    567.60      0  01:42       0.697     0.000
  YS02001590              0.01     72.84      0  01:31       0.000     0.000
  YS02001600              0.01      4.35      0  01:33       0.000     0.000
  YS02001601              0.97   1531.44      0  01:40       2.156     0.000
  YS02001602              0.87     62.00      0  02:12       0.178     0.000
  YS02001605              0.01      0.05      0  02:16       0.000     0.000
  YS02001607              0.01      0.45      0  01:52       0.000     0.000
  YS02001610              0.76    891.09      0  01:42       1.190     0.000
  YS02001613              0.01     29.95      0  01:33       0.000     0.000
  YS02001616              0.01     54.12      0  01:33       0.000     0.000
  YS02001619              0.01     51.73      0  01:33       0.000     0.000
  YS02001622              0.01    186.21      0  01:33       0.000     0.000
  YS02001625              0.74   1440.81      0  01:43       1.870     0.000
  YS02001629              0.19    416.79      0  01:38       0.133     0.000
  YS02001633              0.01      1.52      0  02:16       0.000     0.000
  YS02001644              0.30   1419.28      0  01:39       0.830     0.000
  YS02001649              0.01    194.59      0  01:36       0.003     0.000
  YS02001652              0.01     45.61      0  01:36       0.000     0.000
  YS02001655              0.01     77.71      0  01:36       0.000     0.000
  YS02001658              0.01    387.55      0  01:36       0.001     0.000
  YS02001661              0.01    359.32      0  01:36       0.000     0.000
  YS02001664              0.01    220.19      0  01:36       0.000     0.000
  YS02001745              0.01    369.75      0  01:36       0.000     0.000
  YS02001748              0.01    489.61      0  01:36       0.001     0.000
  YS02001751              0.01     46.64      0  01:36       0.000     0.000
  YS02001754              0.01     52.95      0  01:36       0.000     0.000
  YS02001757              0.01     38.09      0  01:36       0.000     0.000
  YS02001762              0.01      5.05      0  01:36       0.000     0.000
  YS02001765              0.01      3.41      0  01:36       0.000     0.000
  YS02001767              0.01      1.54      0  01:36       0.000     0.000
  YS02001770              0.02    193.03      0  01:35       0.004     0.000
  YS02001774              0.01     45.79      0  01:35       0.000     0.000
  YS02001779              0.27    803.11      0  01:39       0.429     0.000
  YS02001882              0.01     25.01      0  01:33       0.000     0.000
  YS02001884              0.01     14.92      0  01:33       0.000     0.000
  YS02001890              0.24    514.97      0  01:38       0.226     0.000
  YS02001907              0.50   2447.83      0  01:40       2.161     0.000
  YS02001918              0.01    216.19      0  01:35       0.004     0.000
  YS02001920              0.01     46.29      0  01:35       0.000     0.000
  YS02001923              0.01     94.34      0  01:35       0.000     0.000
  YS02001926              0.01    690.05      0  01:35       0.005     0.000
  YS02001929              0.01    799.15      0  01:35       0.002     0.000
  YS02163601              0.01      2.27      0  02:16       0.000     0.000
  
  
  **********************
  Storage Volume Summary
  **********************
  
  ------------------------------------------------------------------------------------------------
                         Average    Avg   Evap  Exfil     Maximum    Max    Time of Max    Maximum
                          Volume   Pcnt   Pcnt   Pcnt      Volume   Pcnt     Occurrence    Outflow
  Storage Unit           1000 m³   Full   Loss   Loss     1000 m³   Full    days hr:min        LPS
  ------------------------------------------------------------------------------------------------
  CC-storage               2.489   38.8    0.0    0.0       4.942   77.1       0  02:22    1783.53
  JK-storage               0.137   47.0    0.0    0.0       0.213   73.0       0  02:01    2300.00
  
  
  ***********************
  Outfall Loading Summary
  ***********************
  
  -----------------------------------------------------------
                         Flow       Avg       Max       Total
                         Freq      Flow      Flow      Volume
  Outfall Node           Pcnt       LPS       LPS    10^6 ltr
  -----------------------------------------------------------
  CC-1                  23.84    683.00    683.00       4.468
  CC-2                  21.20    683.00    683.00       3.911
  JK-1                   7.53   1000.00   1000.00       1.746
  JK-2                   5.81   1000.00   1000.00       1.609
  WSC                   99.96    313.67    559.08       6.820
  -----------------------------------------------------------
  System                31.67   3679.67   3923.85      18.554
  
  
  ********************
  Link Flow Summary
  ********************
  
  -----------------------------------------------------------------------------
                                 Maximum  Time of Max   Maximum    Max/    Max/
                                  |Flow|   Occurrence   |Veloc|    Full    Full
  Link                 Type          LPS  days hr:min     m/sec    Flow   Depth
  -----------------------------------------------------------------------------
  1                    CONDUIT    559.08     0  02:19      2.83    0.19    0.30
  WS02003060WS02003069 CONDUIT    557.84     0  02:01      1.64    0.22    0.34
  WS02003066WSF200     CONDUIT    541.33     0  02:01      2.86    0.09    0.22
  WS02003067WS02003066 CONDUIT    541.25     0  02:00      1.21    0.17    0.42
  WS02003069WS02003072 CONDUIT    557.65     0  02:02      1.37    0.27    0.39
  WS02003072WS02003073 CONDUIT    557.38     0  02:19      1.44    1.20    0.37
  WS02004401WS02004402 CONDUIT    543.08     0  02:43      0.98    0.65    0.89
  WS02004402WS02004403 CONDUIT    543.31     0  02:14      0.97    0.78    0.91
  WS02004403WS02004404 CONDUIT    564.81     0  02:06      0.92    0.41    0.96
  WS02004404WS02004405 CONDUIT    611.81     0  02:05      1.08    5.99    0.98
  WS02004405WS02004406 CONDUIT    547.99     0  01:52      0.99    1.08    0.97
  WS02004406WS02004407 CONDUIT    543.17     0  01:59      1.05    0.24    0.63
  WS02004407WS02004409 CONDUIT    542.66     0  01:59      1.71    0.19    0.48
  WS02004409WS02004410 CONDUIT    542.27     0  01:59      1.05    0.70    0.68
  WS02004410WS02004411 CONDUIT    541.96     0  01:59      0.99    0.74    0.69
  WS02004411WS02004412 CONDUIT    541.72     0  02:00      0.98    0.77    0.70
  WS02004412WS02004413 CONDUIT    541.58     0  02:00      0.82    0.36    0.78
  WS02004413WS02003067 CONDUIT    541.15     0  02:00      1.11    0.23    0.59
  WS02006109WS02006110 CONDUIT    564.69     0  02:19      1.13    1.09    1.00
  WS02006110WS02006113 CONDUIT    569.73     0  01:34      1.37    0.52    0.79
  WS02006111WS02006112 CONDUIT    545.99     0  03:04      1.81    0.26    0.67
  WS02006112WS02006115 CONDUIT    554.86     0  03:01      0.88    0.33    0.88
  WS02006113WS02006111 CONDUIT    561.11     0  03:02      2.47    0.67    0.46
  WS02006115WS02006116 CONDUIT    541.35     0  02:12      1.17    0.69    0.79
  WS02006116WS02004401 CONDUIT    542.22     0  02:15      1.00    0.75    0.87
  WS02006228WS02006109 CONDUIT    564.36     0  02:19      1.12    2.47    1.00
  WS02006229WS02006228 CONDUIT    563.85     0  02:19      1.14    1.87    1.00
  WS02006230WS02006229 CONDUIT    563.11     0  02:19      1.46   12.53    1.00
  WS02006231WS02006230 CONDUIT    571.60     0  03:20      1.60    8.67    1.00
  WS02006232WS02006231 CONDUIT    572.68     0  03:00      1.49    1.20    1.00
  WS02006234WS02006232 CONDUIT    571.83     0  03:00      1.49    1.16    1.00
  WS02006235WS02006234 CONDUIT    566.84     0  03:00      1.47    5.98    1.00
  WS02006238WS02006235 CONDUIT    424.28     0  03:05      1.45    0.95    1.00
  WS02006239WS02006238 CONDUIT    424.13     0  02:15      1.12    1.36    1.00
  WS02006240WS02006239 CONDUIT    422.10     0  02:15      1.27    1.33    1.00
  WS02006242WS02006240 CONDUIT    418.87     0  02:15      1.17    1.66    1.00
  WS02006243WS02006242 CONDUIT    419.01     0  02:25      1.40    0.90    1.00
  WS02006245WS02006243 CONDUIT    418.53     0  02:15      1.45    1.24    1.00
  WS02006247WS02006245 CONDUIT    419.16     0  02:15      1.43    3.32    1.00
  WS02006248WS02006247 CONDUIT    419.26     0  02:15      1.44    0.91    1.00
  WS02006249WS02006248 CONDUIT    420.15     0  02:15      1.36    2.30    1.00
  WS02006251WS02006249 CONDUIT    464.64     0  01:25      1.99    1.34    1.00
  WS02006252WS02006251 CONDUIT    411.92     0  01:40     24.61    1.51    1.00
  WS02006256WS02006235 CONDUIT    288.91     0  00:00      4.23    3.06    1.00
  WSF200WS02003060     CONDUIT    541.64     0  02:01      2.07    0.12    0.28
  YS02001580YS02001583 CONDUIT    147.39     0  01:32      0.86    0.57    1.00
  YS02001583YS02001586 CONDUIT    194.47     0  01:33      0.90    0.29    1.00
  YS02001586YS02001590 CONDUIT    318.02     0  02:04      1.27    0.56    1.00
  YS02001590YS02001593 CONDUIT    318.12     0  02:04      1.13    2.00    1.00
  YS02001593YS02001596 CONDUIT    318.01     0  02:04      1.73    0.50    1.00
  YS02001596YS02001600 CONDUIT    318.15     0  02:04      1.23    0.62    1.00
  YS02001600YS02001601 CONDUIT    317.98     0  01:54      1.12    0.55    1.00
  YS02001601YS02001602 CONDUIT    572.29     0  01:32      2.02    2.07    1.00
  YS02001602YS02001605 CONDUIT    572.18     0  01:32      2.02   12.11    1.00
  YS02001605YS02001607 CONDUIT    572.75     0  01:32      2.03    3.14    1.00
  YS02001607YS02001610 CONDUIT    543.74     0  01:32      0.71    0.52    1.00
  YS02001610YS02001613 CONDUIT    554.91     0  01:42      0.71    0.64    1.00
  YS02001613YS02001616 CONDUIT    554.79     0  01:42      0.71    0.48    1.00
  YS02001616YS02001619 CONDUIT    554.88     0  01:42      0.71    0.96    1.00
  YS02001619YS02001622 CONDUIT   1020.88     0  01:41      1.30    1.50    1.00
  YS02001622YS02001625 CONDUIT   1020.51     0  01:41      1.30    0.54    1.00
  YS02001625YS02001629 CONDUIT    928.12     0  01:33      1.19    0.44    1.00
  YS02001629YS02163301 CONDUIT    911.25     0  01:34      1.16    1.12    1.00
  YS02001633YS02163601 CONDUIT   1440.39     0  01:34      1.83    1.51    1.00
  YS02001641YS02001644 CONDUIT   1443.43     0  01:34      1.84    4.67    1.00
  YS02001644YS02001647 CONDUIT   1956.16     0  01:34      2.49    1.15    1.00
  YS02001647YS02001649 CONDUIT   1911.96     0  01:34      2.43    1.01    1.00
  YS02001649YS02001757 CONDUIT   2207.44     0  01:35      2.81    1.34    1.00
  YS02001652YS02001649 CONDUIT   1074.15     0  01:37      1.37    0.53    1.00
  YS02001655YS02001652 CONDUIT   1074.19     0  01:37      1.54    0.52    1.00
  YS02001658YS02001655 CONDUIT   1074.18     0  01:37      2.04    0.46    1.00
  YS02001661YS02001658 CONDUIT   1074.08     0  01:37      2.43    0.42    1.00
  YS02001664YS02001661 CONDUIT   1071.56     0  01:37      2.56    0.34    1.00
  YS02001745YS02001748 CONDUIT    688.13     0  01:37      2.40    0.26    1.00
  YS02001748YS02001751 CONDUIT    688.71     0  01:39      1.88    0.35    1.00
  YS02001751YS02001754 CONDUIT    688.68     0  01:37      1.59    0.33    1.00
  YS02001754YS02001757 CONDUIT    688.84     0  01:37      0.88    0.28    1.00
  YS02001757CaochengTiaoxuchi CONDUIT   3622.64     0  01:36      4.75    1.57    1.00
  YS02001759YS02001757 CONDUIT   1572.84     0  01:36      2.00    1.12    1.00
  YS02001762YS02001759 CONDUIT    829.16     0  01:36      1.06    0.96    1.00
  YS02001765YS02001762 CONDUIT    829.60     0  01:36      1.06    0.78    1.00
  YS02001767YS02001765 CONDUIT    830.42     0  01:36      1.06    1.04    1.00
  YS02001770YS02001767 CONDUIT    830.53     0  01:36      1.06    3.29    1.00
  YS02001774YS02001770 CONDUIT    804.17     0  01:39      1.02    0.51    1.00
  YS02001779YS02001774 CONDUIT    803.34     0  01:39      1.02    0.40    1.00
  YS02001783YS02001784 CONDUIT   1170.59     0  01:37      2.33    1.61    1.00
  YS02001784YS02001785 CONDUIT   1171.75     0  01:37      2.33    2.73    1.00
  YS02001786YS02001788 CONDUIT   1171.84     0  01:37      2.50    2.26    0.89
  YS02001788YS02001790 CONDUIT   1184.71     0  01:36      2.74    0.87    0.85
  YS02001790YS02001791 CONDUIT   1300.43     0  01:36      3.44    1.41    0.71
  YS02001791YS02001793 CONDUIT   1257.92     0  01:40      6.78    0.54    0.45
  YS02001793JiankangQianchi CONDUIT   1299.62     0  01:42      2.57    0.10    0.65
  YS02001882YS02001884 CONDUIT     99.45     0  01:33      0.18    0.11    1.00
  YS02001884YS02001887 CONDUIT    131.75     0  01:33      0.17    0.18    1.00
  YS02001887YS02001890 CONDUIT   1032.95     0  01:38      1.32    1.77    1.00
  YS02001890YS02001895 CONDUIT    551.73     0  01:34      0.70    0.26    1.00
  YS02001895YS02001898 CONDUIT    553.53     0  01:34      0.70    0.96    1.00
  YS02001898YS02001901 CONDUIT    558.09     0  01:34      0.71    0.36    1.00
  YS02001901YS02001904 CONDUIT    556.94     0  01:34      0.71    0.86    1.00
  YS02001904YS02001907 CONDUIT    552.31     0  01:34      0.70    0.19    1.00
  YS02001907YS02006553 CONDUIT    792.24     0  02:06      0.88    0.93    1.00
  YS02001910YS02001907 CONDUIT   1742.92     0  01:40      2.22    0.98    1.00
  YS02001915YS02001910 CONDUIT   1742.88     0  01:40      2.22    0.87    1.00
  YS02001918YS02001915 CONDUIT    617.11     0  01:34      0.79    0.34    1.00
  YS02001920YS02001918 CONDUIT    620.07     0  01:34      0.79    0.60    1.00
  YS02001923YS02001920 CONDUIT    623.60     0  01:34      0.83    0.28    1.00
  YS02001926YS02001923 CONDUIT    880.00     0  01:34      1.32    1.26    1.00
  YS02001929YS02001926 CONDUIT    675.13     0  01:35      1.22    0.32    1.00
  YS02006553YS02006556 CONDUIT    792.74     0  02:05      1.01    0.68    1.00
  YS02006556YS02006558 CONDUIT    793.72     0  02:05      1.01    0.63    1.00
  YS02006558YS02006561 CONDUIT   1192.44     0  01:34      4.22    2.64    1.00
  YS02006561YS02001783 CONDUIT   1170.48     0  01:36      2.33    0.61    1.00
  YS02163301YS02001633 CONDUIT    911.56     0  01:34      1.16    0.86    1.00
  YS02163601YS02164001 CONDUIT   1438.93     0  01:34      1.83    1.27    1.00
  YS02164001YS02001641 CONDUIT   1441.39     0  01:34      1.84    1.97    1.00
  CC-R1                PUMP       683.00     0  00:00              1.00
  CC-R2                PUMP       683.00     0  00:00              1.00
  CC-S1                PUMP       200.00     0  00:00              1.00
  CC-S2                PUMP       200.00     0  00:00              1.00
  JK-R1                PUMP      1000.00     0  00:00              1.00
  JK-R2                PUMP      1000.00     0  00:00              1.00
  JK-S                 PUMP       300.00     0  00:00              1.00
  
  
  ***************************
  Flow Classification Summary
  ***************************
  
  -------------------------------------------------------------------------------------
                      Adjusted    ---------- Fraction of Time in Flow Class ---------- 
                       /Actual         Up    Down  Sub   Sup   Up    Down  Norm  Inlet 
  Conduit               Length    Dry  Dry   Dry   Crit  Crit  Crit  Crit  Ltd   Ctrl  
  -------------------------------------------------------------------------------------
  1                       1.00   0.00  0.00  0.00  0.00  1.00  0.00  0.00  0.53  0.00
  WS02003060WS02003069    1.00   0.00  0.00  0.00  0.99  0.01  0.00  0.00  0.59  0.00
  WS02003066WSF200        1.00   0.13  0.00  0.00  0.00  0.87  0.00  0.00  0.71  0.00
  WS02003067WS02003066    1.00   0.10  0.02  0.00  0.88  0.00  0.00  0.00  0.00  0.00
  WS02003069WS02003072    1.00   0.00  0.00  0.00  0.99  0.01  0.00  0.00  0.64  0.00
  WS02003072WS02003073    1.00   0.00  0.00  0.00  0.00  0.00  0.00  1.00  0.00  0.00
  WS02004401WS02004402    1.00   0.02  0.00  0.00  0.98  0.00  0.00  0.00  0.00  0.00
  WS02004402WS02004403    1.00   0.02  0.00  0.00  0.97  0.00  0.00  0.00  0.00  0.00
  WS02004403WS02004404    1.00   0.00  0.03  0.00  0.97  0.00  0.00  0.00  0.00  0.00
  WS02004404WS02004405    1.00   0.00  0.00  0.00  1.00  0.00  0.00  0.00  0.01  0.00
  WS02004405WS02004406    1.00   0.00  0.00  0.00  1.00  0.00  0.00  0.00  0.00  0.00
  WS02004406WS02004407    1.00   0.00  0.05  0.00  0.95  0.00  0.00  0.00  0.00  0.00
  WS02004407WS02004409    1.00   0.05  0.00  0.00  0.94  0.01  0.00  0.00  0.94  0.00
  WS02004409WS02004410    1.00   0.05  0.00  0.00  0.95  0.00  0.00  0.00  0.03  0.00
  WS02004410WS02004411    1.00   0.05  0.00  0.00  0.95  0.00  0.00  0.00  0.01  0.00
  WS02004411WS02004412    1.00   0.05  0.00  0.00  0.95  0.00  0.00  0.00  0.00  0.00
  WS02004412WS02004413    1.00   0.05  0.00  0.00  0.94  0.00  0.00  0.00  0.01  0.00
  WS02004413WS02003067    1.00   0.06  0.04  0.00  0.00  0.00  0.90  0.00  0.00  0.00
  WS02006109WS02006110    1.00   0.00  0.01  0.00  0.98  0.00  0.01  0.00  0.00  0.00
  WS02006110WS02006113    1.00   0.01  0.01  0.00  0.98  0.00  0.00  0.00  0.00  0.00
  WS02006111WS02006112    1.00   0.02  0.00  0.00  0.98  0.00  0.00  0.00  0.98  0.00
  WS02006112WS02006115    1.00   0.02  0.00  0.00  0.97  0.00  0.00  0.00  0.00  0.00
  WS02006113WS02006111    1.00   0.02  0.00  0.00  0.00  0.98  0.00  0.00  0.16  0.00
  WS02006115WS02006116    1.00   0.02  0.00  0.00  0.97  0.00  0.00  0.01  0.00  0.00
  WS02006116WS02004401    1.00   0.02  0.00  0.00  0.98  0.00  0.00  0.00  0.00  0.00
  WS02006228WS02006109    1.00   0.00  0.00  0.00  1.00  0.00  0.00  0.00  0.00  0.00
  WS02006229WS02006228    1.00   0.00  0.00  0.00  0.99  0.00  0.00  0.01  0.00  0.00
  WS02006230WS02006229    1.00   0.00  0.00  0.00  0.99  0.00  0.00  0.01  0.00  0.00
  WS02006231WS02006230    1.00   0.00  0.00  0.00  0.37  0.00  0.62  0.00  0.00  0.00
  WS02006232WS02006231    1.00   0.00  0.00  0.00  0.99  0.00  0.01  0.00  0.00  0.00
  WS02006234WS02006232    1.00   0.00  0.00  0.00  1.00  0.00  0.00  0.00  0.21  0.00
  WS02006235WS02006234    1.00   0.00  0.00  0.00  0.74  0.00  0.26  0.00  0.00  0.00
  WS02006238WS02006235    1.00   0.00  0.00  0.00  1.00  0.00  0.00  0.00  0.00  0.00
  WS02006239WS02006238    1.00   0.00  0.00  0.00  1.00  0.00  0.00  0.00  0.32  0.00
  WS02006240WS02006239    1.00   0.00  0.00  0.00  0.62  0.00  0.00  0.37  0.01  0.00
  WS02006242WS02006240    1.00   0.00  0.00  0.00  0.99  0.00  0.00  0.00  0.00  0.00
  WS02006243WS02006242    1.00   0.00  0.00  0.00  0.99  0.00  0.00  0.01  0.44  0.00
  WS02006245WS02006243    1.00   0.00  0.00  0.00  0.70  0.00  0.00  0.30  0.00  0.00
  WS02006247WS02006245    1.00   0.00  0.00  0.00  0.99  0.00  0.00  0.01  0.00  0.00
  WS02006248WS02006247    1.00   0.00  0.00  0.00  0.99  0.00  0.00  0.00  0.16  0.00
  WS02006249WS02006248    1.00   0.00  0.00  0.00  0.58  0.00  0.42  0.00  0.00  0.00
  WS02006251WS02006249    1.00   0.00  0.00  0.00  0.99  0.00  0.00  0.00  0.44  0.00
  WS02006252WS02006251    1.00   0.00  0.18  0.00  0.16  0.00  0.65  0.00  0.00  0.00
  WS02006256WS02006235    1.00   0.00  0.00  0.00  1.00  0.00  0.00  0.00  0.00  0.00
  WSF200WS02003060        1.00   0.00  0.13  0.00  0.29  0.59  0.00  0.00  0.37  0.00
  YS02001580YS02001583    1.00   0.19  0.57  0.00  0.23  0.00  0.00  0.00  0.67  0.00
  YS02001583YS02001586    1.00   0.41  0.30  0.00  0.29  0.00  0.00  0.00  0.67  0.00
  YS02001586YS02001590    1.00   0.13  0.00  0.00  0.44  0.04  0.00  0.40  0.33  0.00
  YS02001590YS02001593    1.00   0.13  0.01  0.00  0.16  0.00  0.71  0.00  0.00  0.00
  YS02001593YS02001596    1.00   0.13  0.00  0.00  0.18  0.01  0.00  0.68  0.02  0.00
  YS02001596YS02001600    1.00   0.13  0.00  0.00  0.23  0.01  0.00  0.63  0.03  0.00
  YS02001600YS02001601    1.00   0.13  0.01  0.00  0.86  0.00  0.00  0.00  0.58  0.00
  YS02001601YS02001602    1.00   0.13  0.01  0.00  0.87  0.00  0.00  0.00  0.00  0.00
  YS02001602YS02001605    1.00   0.13  0.00  0.00  0.87  0.00  0.00  0.00  0.00  0.00
  YS02001605YS02001607    1.00   0.13  0.00  0.00  0.87  0.00  0.00  0.00  0.00  0.00
  YS02001607YS02001610    1.00   0.13  0.01  0.00  0.86  0.00  0.00  0.00  0.01  0.00
  YS02001610YS02001613    1.00   0.13  0.00  0.00  0.87  0.00  0.00  0.00  0.00  0.00
  YS02001613YS02001616    1.00   0.13  0.00  0.00  0.87  0.00  0.00  0.00  0.00  0.00
  YS02001616YS02001619    1.00   0.13  0.00  0.00  0.87  0.00  0.00  0.00  0.00  0.00
  YS02001619YS02001622    1.00   0.13  0.00  0.00  0.87  0.00  0.00  0.00  0.28  0.00
  YS02001622YS02001625    1.00   0.13  0.00  0.00  0.87  0.00  0.00  0.00  0.03  0.00
  YS02001625YS02001629    1.00   0.13  0.04  0.00  0.20  0.00  0.63  0.00  0.00  0.00
  YS02001629YS02163301    1.00   0.14  0.01  0.00  0.85  0.00  0.00  0.00  0.00  0.00
  YS02001633YS02163601    1.00   0.00  0.01  0.00  0.99  0.00  0.00  0.00  0.14  0.00
  YS02001641YS02001644    1.00   0.00  0.01  0.00  0.99  0.00  0.00  0.00  0.00  0.00
  YS02001644YS02001647    1.00   0.00  0.16  0.00  0.84  0.00  0.00  0.00  0.00  0.00
  YS02001647YS02001649    1.00   0.00  0.16  0.00  0.58  0.26  0.00  0.00  0.55  0.00
  YS02001649YS02001757    1.00   0.00  0.00  0.00  0.85  0.14  0.00  0.00  0.39  0.00
  YS02001652YS02001649    1.00   0.00  0.00  0.00  0.97  0.03  0.00  0.00  0.71  0.00
  YS02001655YS02001652    1.00   0.00  0.00  0.00  0.23  0.01  0.00  0.77  0.04  0.00
  YS02001658YS02001655    1.00   0.00  0.14  0.00  0.71  0.15  0.00  0.00  0.64  0.00
  YS02001661YS02001658    1.00   0.14  0.00  0.00  0.55  0.31  0.00  0.00  0.68  0.00
  YS02001664YS02001661    1.00   0.13  0.00  0.00  0.77  0.10  0.00  0.00  0.84  0.00
  YS02001745YS02001748    1.00   0.00  0.00  0.00  0.15  0.01  0.00  0.84  0.06  0.00
  YS02001748YS02001751    1.00   0.00  0.00  0.00  0.87  0.13  0.00  0.00  0.76  0.00
  YS02001751YS02001754    1.00   0.00  0.00  0.00  0.21  0.00  0.00  0.78  0.03  0.00
  YS02001754YS02001757    1.00   0.00  0.00  0.00  1.00  0.00  0.00  0.00  0.78  0.00
  YS02001757CaochengTiaoxuchi    1.00   0.00  0.00  0.00  0.98  0.02  0.00  0.00  0.63  0.00
  YS02001759YS02001757    1.00   0.00  0.00  0.00  0.98  0.02  0.00  0.00  0.54  0.00
  YS02001762YS02001759    1.00   0.00  0.00  0.00  1.00  0.00  0.00  0.00  0.03  0.00
  YS02001765YS02001762    1.00   0.00  0.00  0.00  1.00  0.00  0.00  0.00  0.64  0.00
  YS02001767YS02001765    1.00   0.00  0.00  0.00  1.00  0.00  0.00  0.00  0.01  0.00
  YS02001770YS02001767    1.00   0.00  0.00  0.00  1.00  0.00  0.00  0.00  0.00  0.00
  YS02001774YS02001770    1.00   0.00  0.13  0.00  0.71  0.00  0.16  0.00  0.02  0.00
  YS02001779YS02001774    1.00   0.00  0.00  0.00  1.00  0.00  0.00  0.00  0.75  0.00
  YS02001783YS02001784    1.00   0.00  0.16  0.00  0.84  0.00  0.00  0.00  0.55  0.00
  YS02001784YS02001785    1.00   0.00  0.00  0.00  1.00  0.00  0.00  0.00  0.15  0.00
  YS02001786YS02001788    1.00   0.00  0.00  0.00  0.79  0.21  0.00  0.00  0.00  0.00
  YS02001788YS02001790    1.00   0.00  0.00  0.00  0.21  0.79  0.00  0.00  0.78  0.00
  YS02001790YS02001791    1.00   0.00  0.00  0.00  0.01  0.99  0.00  0.00  0.17  0.00
  YS02001791YS02001793    1.00   0.00  0.00  0.00  0.00  1.00  0.00  0.00  0.01  0.00
  YS02001793JiankangQianchi    1.00   0.00  0.00  0.00  0.96  0.04  0.00  0.00  0.95  0.00
  YS02001882YS02001884    1.00   0.15  0.01  0.00  0.85  0.00  0.00  0.00  0.00  0.00
  YS02001884YS02001887    1.00   0.06  0.05  0.00  0.89  0.00  0.00  0.00  0.00  0.00
  YS02001887YS02001890    1.00   0.00  0.00  0.00  0.97  0.00  0.03  0.00  0.00  0.00
  YS02001890YS02001895    1.00   0.00  0.15  0.00  0.85  0.00  0.00  0.00  0.00  0.00
  YS02001895YS02001898    1.00   0.15  0.00  0.00  0.83  0.00  0.01  0.00  0.00  0.00
  YS02001898YS02001901    1.00   0.16  0.00  0.00  0.84  0.00  0.00  0.00  0.00  0.00
  YS02001901YS02001904    1.00   0.16  0.00  0.00  0.84  0.00  0.00  0.00  0.00  0.00
  YS02001904YS02001907    1.00   0.00  0.15  0.00  0.84  0.00  0.00  0.00  0.00  0.00
  YS02001907YS02006553    1.00   0.00  0.02  0.00  0.98  0.00  0.00  0.00  0.00  0.00
  YS02001910YS02001907    1.00   0.00  0.00  0.00  0.97  0.00  0.00  0.03  0.12  0.00
  YS02001915YS02001910    1.00   0.00  0.00  0.00  0.97  0.03  0.00  0.00  0.13  0.00
  YS02001918YS02001915    1.00   0.00  0.01  0.00  0.98  0.02  0.00  0.00  0.72  0.00
  YS02001920YS02001918    1.00   0.00  0.01  0.00  0.99  0.00  0.00  0.00  0.00  0.00
  YS02001923YS02001920    1.00   0.00  0.00  0.00  1.00  0.00  0.00  0.00  0.90  0.00
  YS02001926YS02001923    1.00   0.00  0.07  0.00  0.08  0.00  0.84  0.00  0.00  0.00
  YS02001929YS02001926    1.00   0.00  0.13  0.00  0.87  0.00  0.00  0.00  0.80  0.00
  YS02006553YS02006556    1.00   0.01  0.00  0.00  0.99  0.00  0.00  0.00  0.03  0.00
  YS02006556YS02006558    1.00   0.00  0.00  0.00  1.00  0.00  0.00  0.00  0.00  0.00
  YS02006558YS02006561    1.00   0.16  0.00  0.00  0.08  0.76  0.00  0.00  0.18  0.00
  YS02006561YS02001783    1.00   0.16  0.00  0.00  0.11  0.72  0.00  0.00  0.66  0.00
  YS02163301YS02001633    1.00   0.00  0.14  0.00  0.86  0.00  0.00  0.00  0.00  0.00
  YS02163601YS02164001    1.00   0.00  0.08  0.00  0.92  0.00  0.00  0.00  0.00  0.00
  YS02164001YS02001641    1.00   0.01  0.07  0.00  0.92  0.00  0.00  0.00  0.05  0.00
  
  
  *************************
  Conduit Surcharge Summary
  *************************
  
  ----------------------------------------------------------------------------
                                                           Hours        Hours 
                         --------- Hours Full --------   Above Full   Capacity
  Conduit                Both Ends  Upstream  Dnstream   Normal Flow   Limited
  ----------------------------------------------------------------------------
  WS02003072WS02003073        0.01      0.01      0.01      1.59         0.01
  WS02004403WS02004404        0.01      0.01      0.06      0.01         0.01
  WS02004404WS02004405        0.01      0.06      0.01      4.32         0.01
  WS02004405WS02004406        0.01      0.01      0.01      1.10         0.01
  WS02006109WS02006110        1.19      1.19      2.79      1.27         0.01
  WS02006110WS02006113        0.01      0.01      2.74      0.01         0.01
  WS02006111WS02006112        0.01      0.01      3.45      0.01         0.01
  WS02006112WS02006115        0.01      0.01      1.31      0.01         0.01
  WS02006228WS02006109        2.69      2.79      2.69      3.69         2.69
  WS02006229WS02006228        2.67      2.70      2.67      3.16         2.66
  WS02006230WS02006229        2.89      3.09      2.89      4.60         2.89
  WS02006231WS02006230        1.18      1.18      1.32      4.45         0.01
  WS02006232WS02006231        1.29      1.29      2.80      1.34         0.01
  WS02006234WS02006232        2.63      2.63      2.80      1.32         1.32
  WS02006235WS02006234        1.60      1.61      2.70      4.36         0.01
  WS02006238WS02006235        2.72      2.72      2.81      0.01         0.01
  WS02006239WS02006238        2.75      2.79      2.75      2.88         2.43
  WS02006240WS02006239        2.63      2.65      2.66      2.89         2.26
  WS02006242WS02006240        2.63      2.63      2.86      3.22         0.01
  WS02006243WS02006242        2.62      2.62      2.73      0.01         0.02
  WS02006245WS02006243        2.60      2.61      2.60      1.74         1.56
  WS02006247WS02006245        2.60      2.63      2.60      4.26         2.59
  WS02006248WS02006247        2.59      2.59      2.62      0.01         0.02
  WS02006249WS02006248        2.57      2.58      2.59      4.24         0.01
  WS02006251WS02006249        2.59      2.59      2.59      3.04         2.54
  WS02006252WS02006251        3.10      3.10      3.11      3.11         0.01
  WS02006256WS02006235        4.38      4.40      5.51      1.55         0.01
  YS02001580YS02001583        0.87      0.87      0.94      0.01         0.01
  YS02001583YS02001586        0.88      0.88      1.06      0.01         0.01
  YS02001586YS02001590        1.07      1.07      1.15      0.01         0.01
  YS02001590YS02001593        1.15      1.15      1.17      1.23         0.01
  YS02001593YS02001596        1.16      1.16      1.28      0.01         0.01
  YS02001596YS02001600        1.33      1.33      1.45      0.01         0.01
  YS02001600YS02001601        1.53      1.53      1.73      0.01         0.01
  YS02001601YS02001602        1.66      1.66      1.76      1.45         0.01
  YS02001602YS02001605        1.62      1.62      1.66      2.40         0.01
  YS02001605YS02001607        1.59      1.62      1.59      1.70         1.59
  YS02001607YS02001610        1.15      1.15      1.18      0.01         0.01
  YS02001610YS02001613        1.15      1.15      1.18      0.01         0.01
  YS02001613YS02001616        1.10      1.10      1.15      0.01         0.01
  YS02001616YS02001619        1.08      1.08      1.10      0.01         0.07
  YS02001619YS02001622        1.08      1.08      1.08      1.11         1.00
  YS02001622YS02001625        1.08      1.08      1.29      0.01         0.01
  YS02001625YS02001629        1.02      1.02      1.29      0.01         0.01
  YS02001629YS02163301        1.29      1.29      1.31      0.02         0.13
  YS02001633YS02163601        1.33      1.33      1.37      0.33         0.32
  YS02001641YS02001644        1.26      1.29      1.26      1.78         1.25
  YS02001644YS02001647        1.03      1.03      1.26      0.04         0.01
  YS02001647YS02001649        1.03      1.03      1.20      0.01         0.01
  YS02001649YS02001757        1.20      1.20      1.28      0.05         0.04
  YS02001652YS02001649        0.99      0.99      1.20      0.01         0.01
  YS02001655YS02001652        0.70      0.70      0.96      0.01         0.01
  YS02001658YS02001655        0.35      0.35      0.70      0.01         0.01
  YS02001661YS02001658        0.11      0.11      0.35      0.01         0.01
  YS02001664YS02001661        0.01      0.01      0.15      0.01         0.01
  YS02001745YS02001748        0.01      0.01      0.26      0.01         0.01
  YS02001748YS02001751        0.31      0.31      0.50      0.01         0.01
  YS02001751YS02001754        0.50      0.50      0.84      0.01         0.01
  YS02001754YS02001757        0.90      0.90      1.28      0.01         0.01
  YS02001757CaochengTiaoxuchi        1.21      1.28      2.27      0.49         0.39
  YS02001759YS02001757        1.18      1.18      1.28      0.09         0.08
  YS02001762YS02001759        1.14      1.14      1.18      0.01         0.02
  YS02001765YS02001762        1.08      1.08      1.14      0.01         0.01
  YS02001767YS02001765        1.04      1.04      1.08      0.01         0.02
  YS02001770YS02001767        1.04      1.04      1.04      0.72         0.70
  YS02001774YS02001770        1.00      1.00      1.12      0.01         0.01
  YS02001779YS02001774        0.81      0.81      1.12      0.01         0.01
  YS02001783YS02001784        0.70      0.73      0.70      0.89         0.70
  YS02001784YS02001785        0.59      0.70      0.59      1.21         0.59
  YS02001786YS02001788        0.01      0.59      0.01      1.04         0.01
  YS02001790YS02001791        0.01      0.01      0.01      0.69         0.01
  YS02001793JiankangQianchi        0.01      0.01      7.70      0.01         0.01
  YS02001882YS02001884        0.67      0.67      0.68      0.01         0.01
  YS02001884YS02001887        0.70      0.70      0.72      0.01         0.01
  YS02001887YS02001890        0.73      0.73      0.75      0.20         0.01
  YS02001890YS02001895        0.66      0.66      0.77      0.01         0.01
  YS02001895YS02001898        0.65      0.65      0.66      0.01         0.01
  YS02001898YS02001901        0.66      0.66      0.71      0.01         0.01
  YS02001901YS02001904        0.69      0.69      0.71      0.01         0.01
  YS02001904YS02001907        0.69      0.69      0.99      0.01         0.01
  YS02001907YS02006553        1.22      1.22      1.31      0.01         0.01
  YS02001910YS02001907        0.77      0.77      0.96      0.01         0.01
  YS02001915YS02001910        0.67      0.67      0.77      0.01         0.01
  YS02001918YS02001915        0.57      0.57      0.67      0.01         0.01
  YS02001920YS02001918        0.57      0.57      0.59      0.01         0.01
  YS02001923YS02001920        0.52      0.52      0.59      0.01         0.01
  YS02001926YS02001923        0.21      0.21      0.24      0.01         0.01
  YS02001929YS02001926        0.04      0.04      0.24      0.01         0.01
  YS02006553YS02006556        0.86      0.86      0.99      0.01         0.01
  YS02006556YS02006558        0.91      0.91      1.02      0.01         0.01
  YS02006558YS02006561        0.61      0.85      0.61      1.14         0.61
  YS02006561YS02001783        0.53      0.53      0.73      0.01         0.01
  YS02163301YS02001633        1.31      1.31      1.34      0.01         0.01
  YS02163601YS02164001        1.29      1.29      1.37      0.04         0.01
  YS02164001YS02001641        1.29      1.29      1.29      0.88         0.86
  
  
  ***************
  Pumping Summary
  ***************
  
  ---------------------------------------------------------------------------------------------------------
                                                  Min       Avg       Max     Total     Power    % Time Off
                        Percent   Number of      Flow      Flow      Flow    Volume     Usage    Pump Curve
  Pump                 Utilized   Start-Ups       LPS       LPS       LPS  10^6 ltr     Kw-hr    Low   High
  ---------------------------------------------------------------------------------------------------------
  CC-R1                   22.71           2      0.00    683.00    683.00     4.467     84.89    0.0    8.3
  CC-R2                   19.88           4      0.00    683.00    683.00     3.910     74.59    0.0    9.4
  CC-S1                   50.44          11      0.00    200.00    200.00     2.906     17.16    0.0    0.0
  CC-S2                   41.95           7      0.00    200.00    200.00     2.416     14.06    0.0    0.0
  JK-R1                    6.06          11      0.00   1000.00   1000.00     1.744     18.60    0.0    0.0
  JK-R2                    5.59          13      0.00   1000.00   1000.00     1.609     14.94    0.0    0.0
  JK-S                    19.31           8      0.00    300.00    300.00     1.668     26.75    0.0    0.0
  

  Analysis begun on:  Wed Apr 23 23:59:17 2025
  Analysis ended on:  Wed Apr 23 23:59:18 2025
  Total elapsed time: 00:00:01