
  EPA STORM WATER MANAGEMENT MODEL - VERSION 5.2 (Build 5.2.4)
  PYSWMM TOOLKIT API - VERSION v1.0 (2023-11-27)
  ------------------------------------------------------------

  WARNING 04: minimum elevation drop used for Conduit WS02004404WS02004405
  WARNING 03: negative offset ignored for Link YS02001904YS02001907
  
  ****************
  Analysis Options
  ****************
  Flow Units ............... LPS
  Process Models:
    Rainfall/Runoff ........ YES
    RDII ................... NO
    Snowmelt ............... NO
    Groundwater ............ NO
    Flow Routing ........... YES
    Ponding Allowed ........ NO
    Water Quality .......... NO
  Infiltration Method ...... HORTON
  Flow Routing Method ...... DYNWAVE
  Surcharge Method ......... EXTRAN
  Starting Date ............ 08/28/2015 08:00:00
  Ending Date .............. 08/28/2015 16:00:00
  Antecedent Dry Days ...... 8.0
  Report Time Step ......... 00:01:00
  Wet Time Step ............ 00:01:00
  Dry Time Step ............ 00:01:00
  Routing Time Step ........ 30.00 sec
  Variable Time Step ....... YES
  Maximum Trials ........... 8
  Number of Threads ........ 4
  Head Tolerance ........... 0.001500 m
  
  
  **************************        Volume         Depth
  Runoff Quantity Continuity     hectare-m            mm
  **************************     ---------       -------
  Total Precipitation ......         1.548        46.668
  Evaporation Loss .........         0.000         0.000
  Infiltration Loss ........         0.095         2.858
  Surface Runoff ...........         1.421        42.828
  Final Storage ............         0.033         0.993
  Continuity Error (%) .....        -0.024
  
  
  **************************        Volume        Volume
  Flow Routing Continuity        hectare-m      10^6 ltr
  **************************     ---------     ---------
  Dry Weather Inflow .......         0.025         0.251
  Wet Weather Inflow .......         1.421        14.209
  Groundwater Inflow .......         0.000         0.000
  RDII Inflow ..............         0.000         0.000
  External Inflow ..........         0.083         0.834
  External Outflow .........         1.274        12.738
  Flooding Loss ............         0.319         3.192
  Evaporation Loss .........         0.000         0.000
  Exfiltration Loss ........         0.000         0.000
  Initial Stored Volume ....         0.243         2.431
  Final Stored Volume ......         0.186         1.859
  Continuity Error (%) .....        -0.365
  
  
  *************************
  Highest Continuity Errors
  *************************
  Node YS02001583 (-5.65%)
  Node YS02001884 (5.16%)
  Node YS02001774 (1.39%)
  
  
  ***************************
  Time-Step Critical Elements
  ***************************
  Link WS02006252WS02006251 (61.87%)
  Link WS02004404WS02004405 (11.17%)
  Link WS02006238WS02006235 (9.05%)
  Link WS02006235WS02006234 (5.82%)
  Link YS02001791YS02001793 (3.76%)
  
  
  ********************************
  Highest Flow Instability Indexes
  ********************************
  Link WS02006113WS02006111 (56)
  Link WS02006111WS02006112 (27)
  Link WS02004404WS02004405 (19)
  Link WS02004403WS02004404 (16)
  Link WS02004405WS02004406 (15)
  
  
  *********************************
  Most Frequent Nonconverging Nodes
  *********************************
  Node CC-1 (7.35%)
  Node CC-2 (7.35%)
  Node JK-1 (7.35%)
  Node JK-2 (7.35%)
  Node WSC (7.35%)
  
  
  *************************
  Routing Time Step Summary
  *************************
  Minimum Time Step           :     0.01 sec
  Average Time Step           :     1.63 sec
  Maximum Time Step           :     6.49 sec
  % of Time in Steady State   :     0.00
  Average Iterations per Step :     2.69
  % of Steps Not Converging   :     7.35
  Time Step Frequencies       :
     30.000 - 13.228 sec      :     0.00 %
     13.228 -  5.833 sec      :     6.84 %
      5.833 -  2.572 sec      :    12.99 %
      2.572 -  1.134 sec      :    14.77 %
      1.134 -  0.500 sec      :    65.40 %
  
  
  ***************************
  Subcatchment Runoff Summary
  ***************************
  
  ------------------------------------------------------------------------------------------------------------------------------
                            Total      Total      Total      Total     Imperv       Perv      Total       Total     Peak  Runoff
                           Precip      Runon       Evap      Infil     Runoff     Runoff     Runoff      Runoff   Runoff   Coeff
  Subcatchment                 mm         mm         mm         mm         mm         mm         mm    10^6 ltr      LPS
  ------------------------------------------------------------------------------------------------------------------------------
  sub60                     46.67       0.00       0.00       1.71      39.86       3.89      43.75        0.57   434.94   0.938
  sub61                     46.67       0.00       0.00       2.49      37.60       5.45      43.05        0.79   602.65   0.922
  sub62                     46.67       0.00       0.00       1.14      41.65       2.59      44.24        1.21   841.75   0.948
  sub63                     46.67       0.00       0.00       4.62      32.16       8.92      41.08        0.93   664.26   0.880
  sub64                     46.67       0.00       0.00       2.33      38.46       4.67      43.13        1.04   678.53   0.924
  sub65                     46.67       0.00       0.00       2.02      39.35       4.05      43.40        1.19   754.99   0.930
  sub66                     46.67       0.00       0.00       5.72      32.06       7.82      39.88        1.86   959.56   0.855
  sub67                     46.67       0.00       0.00       1.10      41.69       2.64      44.32        0.82   664.80   0.950
  sub68                     46.67       0.00       0.00       2.06      38.95       4.47      43.42        1.19   862.34   0.930
  sub69                     46.67       0.00       0.00       1.82      39.56       5.18      44.74        1.66  1005.88   0.959
  sub70                     46.67       0.00       0.00       6.09      30.64       9.78      40.41        1.17   537.54   0.866
  sub71                     46.67       0.00       0.00       1.17      41.61       2.56      44.17        1.16   734.68   0.946
  sub72                     46.67       0.00       0.00       1.05      42.00       2.22      44.22        0.61   350.03   0.948
  
  
  ******************
  Node Depth Summary
  ******************
  
  ---------------------------------------------------------------------------------
                                 Average  Maximum  Maximum  Time of Max    Reported
                                   Depth    Depth      HGL   Occurrence   Max Depth
  Node                 Type       Meters   Meters   Meters  days hr:min      Meters
  ---------------------------------------------------------------------------------
  WS02003060           JUNCTION     0.25     0.38     5.32     0  02:52        0.38
  WS02003066           JUNCTION     0.21     0.30     5.85     0  02:47        0.30
  WS02003067           JUNCTION     0.53     0.70     6.02     0  02:47        0.70
  WS02003069           JUNCTION     0.28     0.43     5.01     0  02:53        0.43
  WS02003072           JUNCTION     0.34     0.50     4.87     0  02:54        0.50
  WS02003073           JUNCTION     0.20     0.30     4.36     0  02:54        0.30
  WS02004401           JUNCTION     0.62     0.88     6.88     0  02:46        0.88
  WS02004402           JUNCTION     0.66     0.90     6.86     0  02:46        0.90
  WS02004403           JUNCTION     0.68     0.92     6.85     0  02:46        0.92
  WS02004404           JUNCTION     0.76     1.02     6.87     0  02:30        1.00
  WS02004405           JUNCTION     0.74     0.97     6.82     0  02:50        0.96
  WS02004406           JUNCTION     0.75     0.96     6.79     0  02:45        0.96
  WS02004407           JUNCTION     0.19     0.30     6.61     0  02:45        0.30
  WS02004409           JUNCTION     0.42     0.67     6.44     0  02:45        0.67
  WS02004410           JUNCTION     0.44     0.68     6.40     0  02:46        0.68
  WS02004411           JUNCTION     0.46     0.69     6.37     0  02:49        0.69
  WS02004412           JUNCTION     0.48     0.70     6.34     0  02:46        0.70
  WS02004413           JUNCTION     0.64     0.86     6.33     0  02:46        0.86
  WS02006109           JUNCTION     0.67     1.12     7.74     0  03:48        0.99
  WS02006110           JUNCTION     0.67     1.12     7.71     0  02:18        0.94
  WS02006111           JUNCTION     0.19     0.29     7.00     0  03:50        0.29
  WS02006112           JUNCTION     0.78     1.08     6.97     0  02:18        1.07
  WS02006113           JUNCTION     0.29     0.46     7.35     0  03:48        0.46
  WS02006115           JUNCTION     0.50     0.77     6.91     0  02:47        0.77
  WS02006116           JUNCTION     0.59     0.86     6.90     0  02:46        0.85
  WS02006228           JUNCTION     0.66     1.16     7.81     0  03:48        1.05
  WS02006229           JUNCTION     0.63     1.17     7.86     0  03:48        1.08
  WS02006230           JUNCTION     0.62     1.35     8.10     0  03:21        1.24
  WS02006231           JUNCTION     0.43     1.14     8.26     0  02:32        1.14
  WS02006232           JUNCTION     0.57     1.27     8.30     0  03:48        1.23
  WS02006234           JUNCTION     0.48     1.35     8.50     0  03:48        1.35
  WS02006235           JUNCTION     0.52     1.50     8.67     0  03:48        1.50
  WS02006238           JUNCTION     0.55     1.56     8.70     0  03:48        1.56
  WS02006239           JUNCTION     0.52     1.58     8.79     0  03:48        1.58
  WS02006240           JUNCTION     0.48     1.54     8.83     0  03:48        1.54
  WS02006242           JUNCTION     0.55     1.55     8.82     0  03:21        1.55
  WS02006243           JUNCTION     0.45     1.45     8.87     0  03:21        1.45
  WS02006245           JUNCTION     0.45     1.37     8.85     0  03:21        1.37
  WS02006247           JUNCTION     0.47     1.30     8.80     0  03:21        1.30
  WS02006248           JUNCTION     0.43     1.10     8.69     0  02:17        1.10
  WS02006249           JUNCTION     0.46     1.09     8.69     0  02:12        1.09
  WS02006251           JUNCTION     0.45     1.44     9.11     0  02:12        1.18
  WS02006252           JUNCTION     0.35     1.50     9.74     0  00:00        0.71
  WS02006256           JUNCTION     0.93     2.35     9.28     0  00:00        2.35
  WSF200               JUNCTION     0.18     0.29     5.52     0  02:47        0.29
  YS02001580           JUNCTION     0.05     1.05     9.59     0  02:08        0.78
  YS02001583           JUNCTION     0.09     1.14     9.64     0  02:08        0.82
  YS02001586           JUNCTION     0.13     1.13     9.30     0  02:08        1.13
  YS02001590           JUNCTION     0.21     1.40     9.26     0  02:05        1.37
  YS02001593           JUNCTION     0.15     1.33     9.19     0  02:08        1.29
  YS02001596           JUNCTION     0.21     1.69     9.10     0  02:08        1.65
  YS02001600           JUNCTION     0.25     1.87     9.00     0  02:08        1.86
  YS02001601           JUNCTION     0.43     2.06     8.90     0  02:06        2.06
  YS02001602           JUNCTION     0.35     1.87     8.77     0  02:06        1.87
  YS02001605           JUNCTION     0.32     1.78     8.68     0  02:07        1.77
  YS02001607           JUNCTION     0.33     1.68     8.53     0  02:07        1.64
  YS02001610           JUNCTION     0.38     1.68     8.48     0  02:07        1.68
  YS02001613           JUNCTION     0.34     1.70     8.54     0  02:07        1.66
  YS02001616           JUNCTION     0.27     1.61     8.52     0  02:07        1.59
  YS02001619           JUNCTION     0.24     1.61     8.54     0  02:07        1.59
  YS02001622           JUNCTION     0.23     1.62     8.52     0  02:07        1.56
  YS02001625           JUNCTION     0.51     1.78     8.38     0  02:07        1.78
  YS02001629           JUNCTION     0.33     1.85     8.40     0  02:07        1.85
  YS02001633           JUNCTION     0.42     2.01     8.47     0  02:11        2.01
  YS02001641           JUNCTION     0.41     1.95     8.39     0  02:12        1.95
  YS02001644           JUNCTION     0.41     1.92     8.35     0  02:11        1.92
  YS02001647           JUNCTION     0.20     1.76     8.37     0  02:12        1.71
  YS02001649           JUNCTION     0.23     2.00     8.39     0  02:12        1.90
  YS02001652           JUNCTION     0.13     1.95     8.55     0  02:12        1.73
  YS02001655           JUNCTION     0.10     2.01     8.86     0  02:12        1.49
  YS02001658           JUNCTION     0.07     2.11     9.25     0  02:12        1.23
  YS02001661           JUNCTION     0.12     1.44     8.84     0  02:13        0.98
  YS02001664           JUNCTION     0.04     0.61     8.54     0  02:13        0.61
  YS02001745           JUNCTION     0.04     0.83     8.35     0  02:12        0.82
  YS02001748           JUNCTION     0.06     1.85     8.93     0  02:12        1.22
  YS02001751           JUNCTION     0.08     1.79     8.67     0  02:12        1.38
  YS02001754           JUNCTION     0.11     1.82     8.43     0  02:12        1.61
  YS02001757           JUNCTION     0.25     2.05     8.31     0  02:12        1.92
  YS02001759           JUNCTION     0.19     2.01     8.38     0  02:12        1.91
  YS02001762           JUNCTION     0.18     2.00     8.40     0  02:12        1.89
  YS02001765           JUNCTION     0.17     1.97     8.42     0  02:12        1.86
  YS02001767           JUNCTION     0.17     1.93     8.42     0  02:12        1.85
  YS02001770           JUNCTION     0.18     1.95     8.44     0  02:12        1.89
  YS02001774           JUNCTION     0.25     2.01     8.43     0  02:12        1.96
  YS02001779           JUNCTION     0.10     1.68     8.37     0  02:11        1.68
  YS02001783           JUNCTION     0.18     1.30     7.44     0  02:10        1.23
  YS02001784           JUNCTION     0.19     1.16     7.23     0  02:10        1.12
  YS02001786           JUNCTION     0.17     0.90     6.93     0  02:10        0.88
  YS02001788           JUNCTION     0.12     0.62     6.60     0  02:10        0.62
  YS02001790           JUNCTION     0.14     0.72     6.37     0  02:13        0.71
  YS02001791           JUNCTION     0.09     0.44     5.91     0  02:12        0.44
  YS02001793           JUNCTION     0.05     0.28     5.12     0  02:20        0.27
  YS02001882           JUNCTION     0.23     1.83     8.55     0  02:09        1.64
  YS02001884           JUNCTION     0.33     1.93     8.55     0  02:09        1.74
  YS02001887           JUNCTION     0.40     1.92     8.46     0  02:09        1.82
  YS02001890           JUNCTION     0.43     1.81     8.32     0  02:09        1.81
  YS02001895           JUNCTION     0.20     1.75     8.50     0  02:09        1.56
  YS02001898           JUNCTION     0.21     1.77     8.51     0  02:09        1.56
  YS02001901           JUNCTION     0.33     1.78     8.39     0  02:09        1.68
  YS02001904           JUNCTION     0.31     1.66     8.29     0  02:09        1.65
  YS02001907           JUNCTION     0.64     1.96     8.25     0  02:10        1.96
  YS02001910           JUNCTION     0.43     2.10     8.61     0  02:09        1.84
  YS02001915           JUNCTION     0.23     2.00     8.72     0  02:09        1.69
  YS02001918           JUNCTION     0.11     1.81     8.88     0  02:10        1.37
  YS02001920           JUNCTION     0.19     2.14     9.15     0  02:11        1.44
  YS02001923           JUNCTION     0.08     2.03     9.29     0  02:11        1.20
  YS02001926           JUNCTION     0.12     1.90     9.35     0  02:11        1.02
  YS02001929           JUNCTION     0.06     1.78     9.47     0  02:11        0.78
  YS02006553           JUNCTION     0.64     1.98     8.26     0  02:10        1.97
  YS02006556           JUNCTION     0.61     1.96     8.27     0  02:13        1.96
  YS02006558           JUNCTION     0.66     2.00     8.27     0  02:13        2.00
  YS02006561           JUNCTION     0.11     1.05     7.71     0  02:10        0.90
  YS02163301           JUNCTION     0.36     1.91     8.43     0  02:12        1.91
  YS02163601           JUNCTION     0.46     2.04     8.43     0  02:12        2.02
  YS02164001           JUNCTION     0.39     1.95     8.40     0  02:12        1.95
  CC-1                 OUTFALL      0.00     0.00     0.00     0  00:00        0.00
  CC-2                 OUTFALL      0.00     0.00     0.00     0  00:00        0.00
  JK-1                 OUTFALL      0.00     0.00     0.00     0  00:00        0.00
  JK-2                 OUTFALL      0.00     0.00     0.00     0  00:00        0.00
  WSC                  OUTFALL      0.20     0.30     0.97     0  02:55        0.30
  CC-storage           STORAGE      0.81     1.48     6.98     0  02:34        1.48
  JK-storage           STORAGE      3.07     4.22     5.02     0  02:20        4.20
  
  
  *******************
  Node Inflow Summary
  *******************
  
  -------------------------------------------------------------------------------------------------
                                  Maximum  Maximum                  Lateral       Total        Flow
                                  Lateral    Total  Time of Max      Inflow      Inflow     Balance
                                   Inflow   Inflow   Occurrence      Volume      Volume       Error
  Node                 Type           LPS      LPS  days hr:min    10^6 ltr    10^6 ltr     Percent
  -------------------------------------------------------------------------------------------------
  WS02003060           JUNCTION     16.53   554.71     0  02:52       0.476        5.92       0.036
  WS02003066           JUNCTION      0.00   537.84     0  02:52           0        5.45       0.024
  WS02003067           JUNCTION      0.00   537.78     0  02:47           0        5.45       0.075
  WS02003069           JUNCTION      0.32   554.82     0  02:53     0.00922        5.93       0.063
  WS02003072           JUNCTION      0.00   554.58     0  02:53           0        5.92       0.114
  WS02003073           JUNCTION      1.82   556.24     0  02:54      0.0524        5.97       0.091
  WS02004401           JUNCTION      0.00   540.82     0  02:45           0        5.55       0.181
  WS02004402           JUNCTION      0.00   541.73     0  02:45           0        5.54       0.184
  WS02004403           JUNCTION      0.00   542.70     0  02:46           0        5.53       0.179
  WS02004404           JUNCTION      0.16   558.40     0  02:41     0.00467        5.52       0.205
  WS02004405           JUNCTION      0.04   604.73     0  02:41      0.0011        5.51       0.123
  WS02004406           JUNCTION      0.00   546.15     0  02:50           0         5.5       0.372
  WS02004407           JUNCTION      0.00   540.40     0  02:45           0        5.48       0.019
  WS02004409           JUNCTION      0.00   539.59     0  02:45           0        5.48       0.046
  WS02004410           JUNCTION      0.00   539.02     0  02:45           0        5.48       0.076
  WS02004411           JUNCTION      0.00   538.53     0  02:46           0        5.48       0.098
  WS02004412           JUNCTION      0.00   538.16     0  02:46           0        5.47       0.133
  WS02004413           JUNCTION      0.00   538.19     0  02:46           0        5.46       0.237
  WS02006109           JUNCTION      1.23   567.07     0  03:48      0.0354        5.59       0.134
  WS02006110           JUNCTION      0.00   570.44     0  03:48           0        5.58       0.109
  WS02006111           JUNCTION      0.00   564.32     0  03:48           0        5.57       0.014
  WS02006112           JUNCTION      0.00   545.83     0  03:50           0        5.57       0.313
  WS02006113           JUNCTION      0.00   582.07     0  03:48           0        5.58       0.030
  WS02006115           JUNCTION      0.00   557.50     0  03:48           0        5.56       0.115
  WS02006116           JUNCTION      0.00   540.62     0  03:49           0        5.55       0.046
  WS02006228           JUNCTION      0.00   560.66     0  03:48           0        5.56       0.039
  WS02006229           JUNCTION      0.00   559.32     0  03:48           0        5.56       0.070
  WS02006230           JUNCTION     10.28   583.01     0  02:32       0.296        5.56       0.064
  WS02006231           JUNCTION      0.00   573.87     0  02:31           0        5.27      -0.000
  WS02006232           JUNCTION      0.00   573.21     0  02:31           0        5.28       0.164
  WS02006234           JUNCTION      0.00   570.45     0  03:21           0        5.27      -0.139
  WS02006235           JUNCTION      0.00   564.75     0  03:21           0        5.29       0.143
  WS02006238           JUNCTION      0.00   423.43     0  02:30           0        4.42      -0.135
  WS02006239           JUNCTION      0.00   421.97     0  02:30           0        4.41      -0.173
  WS02006240           JUNCTION      0.00   419.43     0  02:15           0         4.4      -0.076
  WS02006242           JUNCTION      0.00   419.29     0  02:15           0        4.39      -0.003
  WS02006243           JUNCTION      0.00   418.63     0  03:25           0        4.39      -0.056
  WS02006245           JUNCTION      0.00   418.32     0  02:15           0         4.4       0.247
  WS02006247           JUNCTION      0.00   418.09     0  02:30           0         4.4      -0.001
  WS02006248           JUNCTION      0.00   419.43     0  02:30           0         4.4       0.051
  WS02006249           JUNCTION      0.00   459.02     0  00:00           0        4.59       0.236
  WS02006251           JUNCTION      0.08   408.98     0  02:12     0.00222        4.59       0.011
  WS02006252           JUNCTION      0.00   400.00     0  00:00           0        4.58      -0.100
  WS02006256           JUNCTION      0.00   300.00     0  00:00           0        1.24      -0.707
  WSF200               JUNCTION      0.00   537.91     0  02:47           0        5.45       0.007
  YS02001580           JUNCTION      0.00   125.75     0  02:08           0     0.00446       2.378
  YS02001583           JUNCTION      0.00   191.65     0  02:08           0      0.0154      -5.348
  YS02001586           JUNCTION    537.54   537.54     0  02:15        1.17        1.18       0.108
  YS02001590           JUNCTION      0.00   318.04     0  02:20           0        1.03      -0.044
  YS02001593           JUNCTION      0.00   318.08     0  02:20           0        1.03       0.001
  YS02001596           JUNCTION      0.00   318.00     0  02:20           0        1.03      -0.007
  YS02001600           JUNCTION      0.00   317.99     0  02:19           0        1.03       0.010
  YS02001601           JUNCTION   1005.88  1323.63     0  02:14        1.66        2.69       0.014
  YS02001602           JUNCTION      0.00   524.60     0  02:07           0        1.87       0.019
  YS02001605           JUNCTION      0.00   524.46     0  02:07           0         1.8       0.029
  YS02001607           JUNCTION      0.00   524.22     0  02:07           0         1.8       0.100
  YS02001610           JUNCTION      0.00   534.93     0  02:07           0        1.83       0.118
  YS02001613           JUNCTION      0.00   540.09     0  02:07           0        1.56       0.102
  YS02001616           JUNCTION      0.00   540.09     0  02:07           0        1.56       0.021
  YS02001619           JUNCTION    959.56   959.56     0  02:15        1.86        3.39      -0.005
  YS02001622           JUNCTION      0.00   928.73     0  02:09           0        3.36      -0.001
  YS02001625           JUNCTION      0.00  1055.14     0  02:16           0         3.4       0.261
  YS02001629           JUNCTION      0.00   930.89     0  02:07           0        2.89       0.016
  YS02001633           JUNCTION    755.19  1387.42     0  02:09         1.2        4.03       0.084
  YS02001641           JUNCTION      0.00  1387.11     0  02:09           0        3.97       0.067
  YS02001644           JUNCTION    678.57  1816.41     0  02:10        1.04        5.01       0.068
  YS02001647           JUNCTION      0.00  1816.12     0  02:10           0        4.92       0.009
  YS02001649           JUNCTION      0.00  2059.85     0  02:09           0        5.85       0.003
  YS02001652           JUNCTION      0.00   804.01     0  02:13           0       0.937      -0.127
  YS02001655           JUNCTION      0.15   804.09     0  02:13     0.00443       0.938       0.057
  YS02001658           JUNCTION      0.00   803.33     0  02:13           0       0.933      -0.045
  YS02001661           JUNCTION      0.00   800.18     0  02:13           0       0.933       0.022
  YS02001664           JUNCTION    664.26   664.26     0  02:14       0.933       0.933      -0.012
  YS02001745           JUNCTION    434.95   466.30     0  02:12       0.575       0.575       0.266
  YS02001748           JUNCTION      0.04   644.65     0  02:12      0.0013       0.576      -0.365
  YS02001751           JUNCTION      0.01   519.23     0  02:13    0.000317       0.582       0.134
  YS02001754           JUNCTION      0.26   517.84     0  02:13     0.00749       0.594      -0.206
  YS02001757           JUNCTION      0.00  3427.78     0  02:13           0        8.45       0.045
  YS02001759           JUNCTION    602.69  1368.60     0  02:12       0.791           2      -0.005
  YS02001762           JUNCTION      0.00   796.51     0  02:12           0        1.21      -0.002
  YS02001765           JUNCTION      0.00   798.46     0  02:12           0        1.21       0.011
  YS02001767           JUNCTION      0.54   798.93     0  02:12      0.0154        1.21      -0.001
  YS02001770           JUNCTION    841.90   841.90     0  02:14        1.22        1.26       0.001
  YS02001774           JUNCTION      0.00   405.54     0  02:11           0      0.0785       1.409
  YS02001779           JUNCTION      0.01   415.68     0  02:11    0.000144      0.0356      -1.666
  YS02001783           JUNCTION      0.00  1160.58     0  02:13           0         3.2       0.008
  YS02001784           JUNCTION      1.06  1161.34     0  02:13      0.0305        3.23       0.016
  YS02001786           JUNCTION      0.06  1161.32     0  02:12     0.00162        3.23       0.020
  YS02001788           JUNCTION      0.07  1161.88     0  02:13     0.00204        3.23       0.009
  YS02001790           JUNCTION      0.15  1175.05     0  02:11     0.00446        3.24       0.017
  YS02001791           JUNCTION      0.00  1284.42     0  02:13           0        3.24      -0.018
  YS02001793           JUNCTION      0.00  1225.60     0  02:13           0        3.24       0.008
  YS02001882           JUNCTION      0.00    65.97     0  02:09           0      0.0123       4.833
  YS02001884           JUNCTION      0.00    71.04     0  02:08           0      0.0481       5.444
  YS02001887           JUNCTION    665.25   665.88     0  02:13       0.838       0.871       0.511
  YS02001890           JUNCTION      0.00   665.95     0  02:13           0        0.83       0.617
  YS02001895           JUNCTION      0.00   516.44     0  02:15           0       0.794       0.176
  YS02001898           JUNCTION      0.00   516.02     0  02:15           0       0.792       0.045
  YS02001901           JUNCTION      0.00   516.68     0  02:16           0       0.794       0.409
  YS02001904           JUNCTION      0.00   516.02     0  02:15           0       0.798       0.339
  YS02001907           JUNCTION      0.00  1619.68     0  02:15           0        2.63       0.665
  YS02001910           JUNCTION      0.00  1105.19     0  02:15           0        1.84       0.384
  YS02001915           JUNCTION    734.70  1105.07     0  02:15        1.16        1.89       0.076
  YS02001918           JUNCTION      0.00   447.74     0  02:10           0       0.764      -0.020
  YS02001920           JUNCTION      2.87   445.27     0  02:10      0.0827       0.746       0.126
  YS02001923           JUNCTION      0.04   446.40     0  02:10     0.00109       0.646      -0.170
  YS02001926           JUNCTION      0.05   611.33     0  02:11      0.0015       0.626      -0.210
  YS02001929           JUNCTION    350.03   530.33     0  02:10       0.608       0.612      -0.041
  YS02006553           JUNCTION      0.00   797.67     0  02:25           0        2.02       0.573
  YS02006556           JUNCTION      0.00   797.49     0  02:25           0        2.03       0.387
  YS02006558           JUNCTION    863.22  1171.75     0  02:10        1.22        3.23       0.104
  YS02006561           JUNCTION      0.00  1172.63     0  02:10           0         3.2       0.003
  YS02163301           JUNCTION      0.00   927.84     0  02:09           0        2.88       0.049
  YS02163601           JUNCTION      0.11  1387.33     0  02:09     0.00317        3.97       0.124
  YS02164001           JUNCTION      0.00  1387.71     0  02:09           0        3.97       0.054
  CC-1                 OUTFALL       0.00   683.00     0  00:00           0        2.69       0.000
  CC-2                 OUTFALL       0.00   683.00     0  00:00           0        2.02       0.000
  JK-1                 OUTFALL       0.00  1000.00     0  00:00           0        1.36       0.000
  JK-2                 OUTFALL       0.00  1000.00     0  00:00           0       0.704       0.000
  WSC                  OUTFALL       0.00   556.10     0  02:55           0        5.96       0.000
  CC-storage           STORAGE       0.00  3427.39     0  02:13           0        10.7      -0.274
  JK-storage           STORAGE       0.00  1224.29     0  02:14           0        3.39      -0.296
  
  
  **********************
  Node Surcharge Summary
  **********************
  
  Surcharging occurs when water rises above the top of the highest conduit.
  ---------------------------------------------------------------------
                                               Max. Height   Min. Depth
                                   Hours       Above Crown    Below Rim
  Node                 Type      Surcharged         Meters       Meters
  ---------------------------------------------------------------------
  WS02004404           JUNCTION        0.02          0.024        2.756
  WS02006109           JUNCTION        1.81          0.302        1.518
  WS02006110           JUNCTION        0.61          0.214        1.636
  WS02006112           JUNCTION        0.71          0.084        1.596
  WS02006228           JUNCTION        1.80          0.332        1.868
  WS02006229           JUNCTION        1.82          0.367        2.083
  WS02006230           JUNCTION        0.61          0.273        1.297
  WS02006231           JUNCTION        0.70          0.427        1.103
  WS02006232           JUNCTION        1.90          0.566        0.914
  WS02006234           JUNCTION        0.99          0.627        0.613
  WS02006235           JUNCTION        1.81          0.793        0.497
  WS02006238           JUNCTION        1.86          0.839        0.591
  WS02006239           JUNCTION        1.78          0.836        0.454
  WS02006240           JUNCTION        1.78          0.832        0.558
  WS02006242           JUNCTION        1.79          0.820        0.000
  WS02006243           JUNCTION        1.76          0.745        0.025
  WS02006245           JUNCTION        1.75          0.655        0.195
  WS02006247           JUNCTION        1.75          0.593        0.167
  WS02006248           JUNCTION        1.73          0.380        0.000
  WS02006249           JUNCTION        1.73          0.390        0.000
  WS02006251           JUNCTION        0.74          0.413        0.767
  WS02006252           JUNCTION        2.16          1.100        0.000
  WS02006256           JUNCTION        6.28          2.050        0.000
  YS02001580           JUNCTION        0.41          0.450        0.000
  YS02001583           JUNCTION        0.41          0.500        0.000
  YS02001586           JUNCTION        0.52          0.510        0.000
  YS02001590           JUNCTION        0.59          0.750        0.000
  YS02001593           JUNCTION        0.59          0.708        0.132
  YS02001596           JUNCTION        0.68          0.955        0.115
  YS02001600           JUNCTION        0.81          1.190        0.000
  YS02001601           JUNCTION        1.15          1.440        0.000
  YS02001602           JUNCTION        1.03          1.270        0.000
  YS02001605           JUNCTION        0.98          1.180        0.000
  YS02001607           JUNCTION        0.56          0.680        0.000
  YS02001610           JUNCTION        0.57          0.680        0.000
  YS02001613           JUNCTION        0.55          0.700        0.000
  YS02001616           JUNCTION        0.51          0.610        0.000
  YS02001619           JUNCTION        0.50          0.610        0.000
  YS02001622           JUNCTION        0.50          0.620        0.000
  YS02001625           JUNCTION        0.65          0.780        0.000
  YS02001629           JUNCTION        0.46          0.470        0.000
  YS02001633           JUNCTION        0.66          0.991        0.069
  YS02001641           JUNCTION        0.60          0.953        0.147
  YS02001644           JUNCTION        0.57          0.920        0.000
  YS02001647           JUNCTION        0.39          0.761        0.139
  YS02001649           JUNCTION        0.48          0.995        0.055
  YS02001652           JUNCTION        0.33          0.923        0.207
  YS02001655           JUNCTION        0.22          1.013        0.187
  YS02001658           JUNCTION        0.10          1.113        0.187
  YS02001661           JUNCTION        0.01          0.370        1.020
  YS02001748           JUNCTION        0.02          0.769        0.421
  YS02001751           JUNCTION        0.14          0.795        0.405
  YS02001754           JUNCTION        0.24          0.768        0.382
  YS02001757           JUNCTION        0.52          1.054        0.156
  YS02001759           JUNCTION        0.44          1.012        0.198
  YS02001762           JUNCTION        0.41          1.000        0.150
  YS02001765           JUNCTION        0.37          0.972        0.128
  YS02001767           JUNCTION        0.35          0.935        0.095
  YS02001770           JUNCTION        0.33          0.920        0.000
  YS02001774           JUNCTION        0.39          1.007        0.043
  YS02001779           JUNCTION        0.26          0.680        0.000
  YS02001783           JUNCTION        0.39          0.501        1.099
  YS02001784           JUNCTION        0.37          0.361        1.129
  YS02001786           JUNCTION        0.28          0.104        1.326
  YS02001882           JUNCTION        0.35          0.830        0.000
  YS02001884           JUNCTION        0.36          0.870        0.000
  YS02001887           JUNCTION        0.39          0.870        0.080
  YS02001890           JUNCTION        0.40          0.760        0.000
  YS02001895           JUNCTION        0.34          0.750        0.000
  YS02001898           JUNCTION        0.33          0.740        0.000
  YS02001901           JUNCTION        0.37          0.782        0.088
  YS02001904           JUNCTION        0.37          0.664        0.186
  YS02001907           JUNCTION        0.57          0.950        0.000
  YS02001910           JUNCTION        0.42          1.100        0.000
  YS02001915           JUNCTION        0.35          1.000        0.000
  YS02001918           JUNCTION        0.28          0.810        0.000
  YS02001920           JUNCTION        0.29          1.140        0.000
  YS02001923           JUNCTION        0.01          0.820        0.000
  YS02001926           JUNCTION        0.03          0.900        0.000
  YS02001929           JUNCTION        0.01          0.780        0.000
  YS02006553           JUNCTION        0.58          0.978        0.212
  YS02006556           JUNCTION        0.50          0.916        0.434
  YS02006558           JUNCTION        0.49          0.902        0.498
  YS02006561           JUNCTION        0.24          0.253        0.897
  YS02163301           JUNCTION        0.65          0.913        0.117
  YS02163601           JUNCTION        0.69          1.036        0.044
  YS02164001           JUNCTION        0.61          0.946        0.154
  
  
  *********************
  Node Flooding Summary
  *********************
  
  Flooding refers to all water that overflows a node, whether it ponds or not.
  --------------------------------------------------------------------------
                                                             Total   Maximum
                                 Maximum   Time of Max       Flood    Ponded
                        Hours       Rate    Occurrence      Volume     Depth
  Node                 Flooded       LPS   days hr:min    10^6 ltr    Meters
  --------------------------------------------------------------------------
  WS02006242              0.01      1.57      0  03:48       0.000     0.000
  WS02006248              0.01     15.86      0  03:48       0.000     0.000
  WS02006249              0.72    110.28      0  02:12       0.178     0.000
  WS02006252              0.01    245.63      0  00:00       0.000     0.000
  WS02006256              1.15    293.19      0  00:00       0.379     0.000
  YS02001580              0.01    110.88      0  02:08       0.000     0.000
  YS02001583              0.01    143.37      0  02:08       0.000     0.000
  YS02001586              0.31    220.14      0  02:15       0.132     0.000
  YS02001590              0.01     31.92      0  02:05       0.000     0.000
  YS02001600              0.01      0.99      0  02:08       0.000     0.000
  YS02001601              0.46    925.65      0  02:14       0.816     0.000
  YS02001602              0.37     62.01      0  02:23       0.073     0.000
  YS02001605              0.01      4.10      0  02:07       0.000     0.000
  YS02001607              0.01      6.34      0  02:07       0.000     0.000
  YS02001610              0.32    442.68      0  02:16       0.298     0.000
  YS02001613              0.01     32.89      0  02:07       0.000     0.000
  YS02001616              0.01     21.18      0  02:07       0.000     0.000
  YS02001619              0.01     95.32      0  02:07       0.000     0.000
  YS02001622              0.01     90.68      0  02:07       0.000     0.000
  YS02001625              0.29   1055.13      0  02:16       0.553     0.000
  YS02001629              0.06    185.15      0  02:07       0.022     0.000
  YS02001644              0.08    504.25      0  02:13       0.079     0.000
  YS02001770              0.01     15.78      0  02:12       0.000     0.000
  YS02001779              0.06    354.99      0  02:11       0.019     0.000
  YS02001882              0.01     27.12      0  02:09       0.000     0.000
  YS02001884              0.01     11.86      0  02:09       0.000     0.000
  YS02001890              0.09    159.31      0  02:13       0.031     0.000
  YS02001895              0.01     27.19      0  02:09       0.000     0.000
  YS02001898              0.01     32.81      0  02:09       0.000     0.000
  YS02001907              0.23   1287.15      0  02:15       0.602     0.000
  YS02001910              0.01     44.38      0  02:09       0.000     0.000
  YS02001915              0.01    148.36      0  02:09       0.000     0.000
  YS02001918              0.01    272.89      0  02:11       0.003     0.000
  YS02001920              0.01     93.51      0  02:11       0.000     0.000
  YS02001923              0.01    285.74      0  02:11       0.001     0.000
  YS02001926              0.01    530.46      0  02:11       0.002     0.000
  YS02001929              0.01    186.70      0  02:11       0.001     0.000
  
  
  **********************
  Storage Volume Summary
  **********************
  
  ------------------------------------------------------------------------------------------------
                         Average    Avg   Evap  Exfil     Maximum    Max    Time of Max    Maximum
                          Volume   Pcnt   Pcnt   Pcnt      Volume   Pcnt     Occurrence    Outflow
  Storage Unit           1000 m³   Full   Loss   Loss     1000 m³   Full    days hr:min        LPS
  ------------------------------------------------------------------------------------------------
  CC-storage               2.267   35.4    0.0    0.0       4.132   64.5       0  02:34    1783.53
  JK-storage               0.154   52.9    0.0    0.0       0.212   72.8       0  02:20    2300.00
  
  
  ***********************
  Outfall Loading Summary
  ***********************
  
  -----------------------------------------------------------
                         Flow       Avg       Max       Total
                         Freq      Flow      Flow      Volume
  Outfall Node           Pcnt       LPS       LPS    10^6 ltr
  -----------------------------------------------------------
  CC-1                  11.53    683.00    683.00       2.689
  CC-2                   9.34    683.00    683.00       2.023
  JK-1                   5.64   1000.00   1000.00       1.356
  JK-2                   2.25   1000.00   1000.00       0.704
  WSC                   99.97    266.47    556.10       5.965
  -----------------------------------------------------------
  System                25.75   3632.47   3921.44      12.738
  
  
  ********************
  Link Flow Summary
  ********************
  
  -----------------------------------------------------------------------------
                                 Maximum  Time of Max   Maximum    Max/    Max/
                                  |Flow|   Occurrence   |Veloc|    Full    Full
  Link                 Type          LPS  days hr:min     m/sec    Flow   Depth
  -----------------------------------------------------------------------------
  1                    CONDUIT    556.10     0  02:55      2.83    0.19    0.30
  WS02003060WS02003069 CONDUIT    554.50     0  02:53      1.64    0.22    0.34
  WS02003066WSF200     CONDUIT    537.91     0  02:47      2.85    0.09    0.22
  WS02003067WS02003066 CONDUIT    537.84     0  02:52      1.21    0.17    0.42
  WS02003069WS02003072 CONDUIT    554.58     0  02:53      1.37    0.27    0.39
  WS02003072WS02003073 CONDUIT    554.42     0  02:54      1.44    1.20    0.37
  WS02004401WS02004402 CONDUIT    541.73     0  02:45      0.98    0.65    0.89
  WS02004402WS02004403 CONDUIT    542.70     0  02:46      0.97    0.78    0.91
  WS02004403WS02004404 CONDUIT    558.23     0  02:41      0.92    0.40    0.96
  WS02004404WS02004405 CONDUIT    604.69     0  02:41      1.08    5.92    0.98
  WS02004405WS02004406 CONDUIT    546.15     0  02:50      0.99    1.08    0.96
  WS02004406WS02004407 CONDUIT    540.40     0  02:45      1.04    0.24    0.63
  WS02004407WS02004409 CONDUIT    539.59     0  02:45      1.67    0.19    0.48
  WS02004409WS02004410 CONDUIT    539.02     0  02:45      1.00    0.70    0.68
  WS02004410WS02004411 CONDUIT    538.53     0  02:46      0.94    0.74    0.69
  WS02004411WS02004412 CONDUIT    538.16     0  02:46      0.92    0.76    0.69
  WS02004412WS02004413 CONDUIT    538.19     0  02:46      0.82    0.36    0.78
  WS02004413WS02003067 CONDUIT    537.78     0  02:47      1.11    0.23    0.59
  WS02006109WS02006110 CONDUIT    570.44     0  03:48      1.13    1.10    1.00
  WS02006110WS02006113 CONDUIT    582.07     0  03:48      1.40    0.53    0.79
  WS02006111WS02006112 CONDUIT    545.83     0  03:50      1.81    0.26    0.67
  WS02006112WS02006115 CONDUIT    557.50     0  03:48      0.82    0.33    0.88
  WS02006113WS02006111 CONDUIT    564.32     0  03:48      2.47    0.68    0.46
  WS02006115WS02006116 CONDUIT    540.62     0  03:49      1.10    0.69    0.78
  WS02006116WS02004401 CONDUIT    540.82     0  02:45      0.98    0.75    0.86
  WS02006228WS02006109 CONDUIT    565.84     0  03:48      1.13    2.47    1.00
  WS02006229WS02006228 CONDUIT    560.66     0  03:48      1.14    1.86    1.00
  WS02006230WS02006229 CONDUIT    559.32     0  03:48      1.45   12.45    1.00
  WS02006231WS02006230 CONDUIT    572.73     0  02:32      1.59    8.69    1.00
  WS02006232WS02006231 CONDUIT    573.87     0  02:31      1.49    1.20    1.00
  WS02006234WS02006232 CONDUIT    573.21     0  02:31      1.49    1.16    1.00
  WS02006235WS02006234 CONDUIT    570.45     0  03:21      1.48    6.02    1.00
  WS02006238WS02006235 CONDUIT    425.08     0  03:25      1.45    0.95    1.00
  WS02006239WS02006238 CONDUIT    423.43     0  02:30      1.18    1.35    1.00
  WS02006240WS02006239 CONDUIT    421.97     0  02:30      1.28    1.33    1.00
  WS02006242WS02006240 CONDUIT    419.43     0  02:15      1.16    1.67    1.00
  WS02006243WS02006242 CONDUIT    419.29     0  02:15      1.40    0.90    1.00
  WS02006245WS02006243 CONDUIT    418.63     0  03:25      1.45    1.24    1.00
  WS02006247WS02006245 CONDUIT    418.32     0  02:15      1.43    3.32    1.00
  WS02006248WS02006247 CONDUIT    418.09     0  02:30      1.44    0.91    1.00
  WS02006249WS02006248 CONDUIT    419.43     0  02:30      1.38    2.30    1.00
  WS02006251WS02006249 CONDUIT    459.02     0  00:00      2.02    1.32    1.00
  WS02006252WS02006251 CONDUIT    408.91     0  02:12     24.61    1.50    1.00
  WS02006256WS02006235 CONDUIT    288.91     0  00:00      4.23    3.06    1.00
  WSF200WS02003060     CONDUIT    538.18     0  02:52      2.06    0.12    0.28
  YS02001580YS02001583 CONDUIT    125.75     0  02:08      0.73    0.49    1.00
  YS02001583YS02001586 CONDUIT    169.96     0  02:07      0.73    0.26    1.00
  YS02001586YS02001590 CONDUIT    318.04     0  02:20      1.26    0.56    1.00
  YS02001590YS02001593 CONDUIT    318.08     0  02:20      1.12    2.00    1.00
  YS02001593YS02001596 CONDUIT    318.00     0  02:20      1.74    0.50    1.00
  YS02001596YS02001600 CONDUIT    317.99     0  02:19      1.23    0.62    1.00
  YS02001600YS02001601 CONDUIT    317.98     0  02:22      1.12    0.55    1.00
  YS02001601YS02001602 CONDUIT    524.60     0  02:07      1.86    1.89    1.00
  YS02001602YS02001605 CONDUIT    524.46     0  02:07      1.85   11.10    1.00
  YS02001605YS02001607 CONDUIT    524.22     0  02:07      1.85    2.87    1.00
  YS02001607YS02001610 CONDUIT    534.93     0  02:07      0.68    0.51    1.00
  YS02001610YS02001613 CONDUIT    540.09     0  02:07      0.69    0.62    1.00
  YS02001613YS02001616 CONDUIT    540.09     0  02:07      0.69    0.46    1.00
  YS02001616YS02001619 CONDUIT    501.45     0  02:07      0.67    0.87    1.00
  YS02001619YS02001622 CONDUIT    928.73     0  02:09      1.20    1.37    1.00
  YS02001622YS02001625 CONDUIT    931.01     0  02:07      1.19    0.50    1.00
  YS02001625YS02001629 CONDUIT    930.89     0  02:07      1.19    0.44    1.00
  YS02001629YS02163301 CONDUIT    927.84     0  02:09      1.18    1.14    1.00
  YS02001633YS02163601 CONDUIT   1387.22     0  02:09      1.77    1.46    1.00
  YS02001641YS02001644 CONDUIT   1387.20     0  02:09      1.77    4.48    1.00
  YS02001644YS02001647 CONDUIT   1816.12     0  02:10      2.32    1.07    1.00
  YS02001647YS02001649 CONDUIT   1838.27     0  02:10      2.35    0.97    1.00
  YS02001649YS02001757 CONDUIT   2049.25     0  02:10      2.61    1.24    1.00
  YS02001652YS02001649 CONDUIT    803.99     0  02:13      1.02    0.40    1.00
  YS02001655YS02001652 CONDUIT    804.01     0  02:13      1.32    0.39    1.00
  YS02001658YS02001655 CONDUIT    803.94     0  02:13      1.93    0.34    1.00
  YS02001661YS02001658 CONDUIT    803.33     0  02:13      2.35    0.32    1.00
  YS02001664YS02001661 CONDUIT    800.18     0  02:13      2.39    0.25    0.80
  YS02001745YS02001748 CONDUIT    644.61     0  02:12      2.24    0.25    0.92
  YS02001748YS02001751 CONDUIT    519.21     0  02:13      1.74    0.26    1.00
  YS02001751YS02001754 CONDUIT    517.58     0  02:13      1.45    0.25    1.00
  YS02001754YS02001757 CONDUIT    516.72     0  02:13      0.66    0.21    1.00
  YS02001757CaochengTiaoxuchi CONDUIT   3427.39     0  02:13      4.36    1.48    1.00
  YS02001759YS02001757 CONDUIT   1366.12     0  02:12      1.74    0.97    1.00
  YS02001762YS02001759 CONDUIT    794.41     0  02:12      1.01    0.92    1.00
  YS02001765YS02001762 CONDUIT    796.51     0  02:12      1.01    0.75    1.00
  YS02001767YS02001765 CONDUIT    798.46     0  02:12      1.02    1.00    1.00
  YS02001770YS02001767 CONDUIT    798.39     0  02:12      1.02    3.16    1.00
  YS02001774YS02001770 CONDUIT    405.54     0  02:11      0.52    0.26    1.00
  YS02001779YS02001774 CONDUIT    415.67     0  02:11      0.53    0.21    1.00
  YS02001783YS02001784 CONDUIT   1160.28     0  02:13      2.31    1.60    1.00
  YS02001784YS02001785 CONDUIT   1161.26     0  02:12      2.31    2.70    1.00
  YS02001786YS02001788 CONDUIT   1161.81     0  02:13      2.48    2.24    0.89
  YS02001788YS02001790 CONDUIT   1174.89     0  02:11      2.71    0.87    0.84
  YS02001790YS02001791 CONDUIT   1284.42     0  02:13      3.43    1.40    0.71
  YS02001791YS02001793 CONDUIT   1225.60     0  02:13      6.75    0.53    0.44
  YS02001793JiankangQianchi CONDUIT   1224.29     0  02:14      2.46    0.10    0.64
  YS02001882YS02001884 CONDUIT     65.97     0  02:09      0.09    0.08    1.00
  YS02001884YS02001887 CONDUIT     71.04     0  02:08      0.09    0.09    1.00
  YS02001887YS02001890 CONDUIT    665.95     0  02:13      0.85    1.14    1.00
  YS02001890YS02001895 CONDUIT    516.44     0  02:15      0.66    0.24    1.00
  YS02001895YS02001898 CONDUIT    516.02     0  02:15      0.66    0.90    1.00
  YS02001898YS02001901 CONDUIT    516.68     0  02:16      0.66    0.33    1.00
  YS02001901YS02001904 CONDUIT    516.02     0  02:15      0.66    0.80    1.00
  YS02001904YS02001907 CONDUIT    516.62     0  02:15      0.66    0.18    1.00
  YS02001907YS02006553 CONDUIT    797.67     0  02:25      0.89    0.94    1.00
  YS02001910YS02001907 CONDUIT   1105.13     0  02:15      1.41    0.62    1.00
  YS02001915YS02001910 CONDUIT   1105.19     0  02:15      1.41    0.55    1.00
  YS02001918YS02001915 CONDUIT    447.74     0  02:10      0.57    0.25    1.00
  YS02001920YS02001918 CONDUIT    442.40     0  02:10      0.66    0.43    1.00
  YS02001923YS02001920 CONDUIT    446.36     0  02:10      0.69    0.20    1.00
  YS02001926YS02001923 CONDUIT    408.28     0  02:11      0.97    0.58    1.00
  YS02001929YS02001926 CONDUIT    397.23     0  02:11      1.15    0.19    1.00
  YS02006553YS02006556 CONDUIT    797.49     0  02:25      1.02    0.68    1.00
  YS02006556YS02006558 CONDUIT    799.36     0  02:25      1.02    0.63    1.00
  YS02006558YS02006561 CONDUIT   1172.63     0  02:10      4.15    2.59    1.00
  YS02006561YS02001783 CONDUIT   1160.58     0  02:13      2.31    0.60    1.00
  YS02163301YS02001633 CONDUIT    927.98     0  02:09      1.18    0.87    1.00
  YS02163601YS02164001 CONDUIT   1387.71     0  02:09      1.77    1.23    1.00
  YS02164001YS02001641 CONDUIT   1387.11     0  02:09      1.77    1.89    1.00
  CC-R1                PUMP       683.00     0  00:00              1.00
  CC-R2                PUMP       683.00     0  00:00              1.00
  CC-S1                PUMP       200.00     0  00:00              1.00
  CC-S2                PUMP       200.00     0  00:00              1.00
  JK-R1                PUMP      1000.00     0  00:00              1.00
  JK-R2                PUMP      1000.00     0  00:00              1.00
  JK-S                 PUMP       300.00     0  00:00              1.00
  
  
  ***************************
  Flow Classification Summary
  ***************************
  
  -------------------------------------------------------------------------------------
                      Adjusted    ---------- Fraction of Time in Flow Class ---------- 
                       /Actual         Up    Down  Sub   Sup   Up    Down  Norm  Inlet 
  Conduit               Length    Dry  Dry   Dry   Crit  Crit  Crit  Crit  Ltd   Ctrl  
  -------------------------------------------------------------------------------------
  1                       1.00   0.00  0.00  0.00  0.00  1.00  0.00  0.00  0.43  0.00
  WS02003060WS02003069    1.00   0.00  0.00  0.00  0.99  0.01  0.00  0.00  0.68  0.00
  WS02003066WSF200        1.00   0.12  0.00  0.00  0.00  0.88  0.00  0.00  0.78  0.00
  WS02003067WS02003066    1.00   0.10  0.02  0.00  0.88  0.00  0.00  0.00  0.00  0.00
  WS02003069WS02003072    1.00   0.00  0.00  0.00  0.99  0.01  0.00  0.00  0.75  0.00
  WS02003072WS02003073    1.00   0.00  0.00  0.00  0.00  0.00  0.00  1.00  0.00  0.00
  WS02004401WS02004402    1.00   0.02  0.00  0.00  0.98  0.00  0.00  0.00  0.00  0.00
  WS02004402WS02004403    1.00   0.02  0.00  0.00  0.97  0.00  0.00  0.00  0.00  0.00
  WS02004403WS02004404    1.00   0.00  0.03  0.00  0.97  0.00  0.00  0.00  0.00  0.00
  WS02004404WS02004405    1.00   0.00  0.00  0.00  1.00  0.00  0.00  0.00  0.01  0.00
  WS02004405WS02004406    1.00   0.00  0.00  0.00  1.00  0.00  0.00  0.00  0.00  0.00
  WS02004406WS02004407    1.00   0.00  0.05  0.00  0.95  0.00  0.00  0.00  0.00  0.00
  WS02004407WS02004409    1.00   0.05  0.00  0.00  0.94  0.01  0.00  0.00  0.94  0.00
  WS02004409WS02004410    1.00   0.05  0.00  0.00  0.95  0.00  0.00  0.00  0.03  0.00
  WS02004410WS02004411    1.00   0.05  0.00  0.00  0.95  0.00  0.00  0.00  0.01  0.00
  WS02004411WS02004412    1.00   0.05  0.00  0.00  0.95  0.00  0.00  0.00  0.00  0.00
  WS02004412WS02004413    1.00   0.05  0.00  0.00  0.94  0.00  0.00  0.00  0.01  0.00
  WS02004413WS02003067    1.00   0.06  0.04  0.00  0.00  0.00  0.90  0.00  0.00  0.00
  WS02006109WS02006110    1.00   0.00  0.01  0.00  0.98  0.00  0.01  0.00  0.00  0.00
  WS02006110WS02006113    1.00   0.01  0.01  0.00  0.98  0.00  0.00  0.00  0.00  0.00
  WS02006111WS02006112    1.00   0.02  0.00  0.00  0.98  0.00  0.00  0.00  0.98  0.00
  WS02006112WS02006115    1.00   0.02  0.00  0.00  0.97  0.00  0.00  0.00  0.00  0.00
  WS02006113WS02006111    1.00   0.02  0.00  0.00  0.00  0.98  0.00  0.00  0.16  0.00
  WS02006115WS02006116    1.00   0.02  0.00  0.00  0.97  0.00  0.00  0.01  0.00  0.00
  WS02006116WS02004401    1.00   0.02  0.00  0.00  0.98  0.00  0.00  0.00  0.00  0.00
  WS02006228WS02006109    1.00   0.00  0.00  0.00  1.00  0.00  0.00  0.00  0.01  0.00
  WS02006229WS02006228    1.00   0.00  0.00  0.00  0.99  0.00  0.00  0.01  0.00  0.00
  WS02006230WS02006229    1.00   0.00  0.00  0.00  0.99  0.00  0.00  0.01  0.02  0.00
  WS02006231WS02006230    1.00   0.00  0.00  0.00  0.26  0.00  0.74  0.00  0.00  0.00
  WS02006232WS02006231    1.00   0.00  0.00  0.00  0.99  0.00  0.01  0.00  0.00  0.00
  WS02006234WS02006232    1.00   0.00  0.00  0.00  1.00  0.00  0.00  0.00  0.10  0.00
  WS02006235WS02006234    1.00   0.00  0.00  0.00  0.83  0.00  0.17  0.00  0.00  0.00
  WS02006238WS02006235    1.00   0.00  0.00  0.00  1.00  0.00  0.00  0.00  0.00  0.00
  WS02006239WS02006238    1.00   0.00  0.00  0.00  1.00  0.00  0.00  0.00  0.23  0.00
  WS02006240WS02006239    1.00   0.00  0.00  0.00  0.65  0.00  0.00  0.35  0.01  0.00
  WS02006242WS02006240    1.00   0.00  0.00  0.00  0.98  0.00  0.02  0.00  0.00  0.00
  WS02006243WS02006242    1.00   0.00  0.00  0.00  0.98  0.00  0.00  0.01  0.41  0.00
  WS02006245WS02006243    1.00   0.00  0.00  0.00  0.82  0.00  0.00  0.18  0.00  0.00
  WS02006247WS02006245    1.00   0.00  0.00  0.00  0.98  0.00  0.00  0.02  0.00  0.00
  WS02006248WS02006247    1.00   0.00  0.00  0.00  0.99  0.00  0.00  0.01  0.29  0.00
  WS02006249WS02006248    1.00   0.00  0.00  0.00  0.60  0.00  0.40  0.00  0.00  0.00
  WS02006251WS02006249    1.00   0.00  0.00  0.00  0.99  0.01  0.00  0.00  0.43  0.00
  WS02006252WS02006251    1.00   0.00  0.45  0.00  0.09  0.00  0.46  0.00  0.00  0.00
  WS02006256WS02006235    1.00   0.00  0.00  0.00  1.00  0.00  0.00  0.00  0.00  0.00
  WSF200WS02003060        1.00   0.00  0.12  0.00  0.28  0.60  0.00  0.00  0.39  0.00
  YS02001580YS02001583    1.00   0.26  0.57  0.00  0.17  0.00  0.00  0.00  0.66  0.00
  YS02001583YS02001586    1.00   0.43  0.35  0.00  0.22  0.00  0.00  0.00  0.67  0.00
  YS02001586YS02001590    1.00   0.13  0.00  0.00  0.41  0.05  0.00  0.42  0.37  0.00
  YS02001590YS02001593    1.00   0.13  0.01  0.00  0.09  0.00  0.78  0.00  0.00  0.00
  YS02001593YS02001596    1.00   0.14  0.00  0.00  0.10  0.01  0.00  0.75  0.02  0.00
  YS02001596YS02001600    1.00   0.14  0.00  0.00  0.16  0.01  0.00  0.68  0.05  0.00
  YS02001600YS02001601    1.00   0.13  0.01  0.00  0.86  0.00  0.00  0.00  0.63  0.00
  YS02001601YS02001602    1.00   0.13  0.01  0.00  0.86  0.00  0.00  0.00  0.00  0.00
  YS02001602YS02001605    1.00   0.14  0.00  0.00  0.86  0.00  0.00  0.00  0.00  0.00
  YS02001605YS02001607    1.00   0.14  0.00  0.00  0.86  0.00  0.00  0.00  0.00  0.00
  YS02001607YS02001610    1.00   0.13  0.01  0.00  0.86  0.00  0.00  0.00  0.02  0.00
  YS02001610YS02001613    1.00   0.13  0.00  0.00  0.87  0.00  0.00  0.00  0.01  0.00
  YS02001613YS02001616    1.00   0.13  0.00  0.00  0.87  0.00  0.00  0.00  0.01  0.00
  YS02001616YS02001619    1.00   0.13  0.00  0.00  0.87  0.00  0.00  0.00  0.00  0.00
  YS02001619YS02001622    1.00   0.13  0.00  0.00  0.87  0.00  0.00  0.00  0.30  0.00
  YS02001622YS02001625    1.00   0.13  0.00  0.00  0.87  0.00  0.00  0.00  0.06  0.00
  YS02001625YS02001629    1.00   0.13  0.06  0.00  0.12  0.00  0.69  0.00  0.00  0.00
  YS02001629YS02163301    1.00   0.17  0.01  0.00  0.82  0.00  0.00  0.00  0.00  0.00
  YS02001633YS02163601    1.00   0.00  0.01  0.00  0.99  0.00  0.00  0.00  0.15  0.00
  YS02001641YS02001644    1.00   0.00  0.01  0.00  0.99  0.00  0.00  0.00  0.00  0.00
  YS02001644YS02001647    1.00   0.00  0.19  0.00  0.81  0.00  0.00  0.00  0.00  0.00
  YS02001647YS02001649    1.00   0.00  0.19  0.00  0.51  0.30  0.00  0.00  0.56  0.00
  YS02001649YS02001757    1.00   0.00  0.00  0.00  0.87  0.13  0.00  0.00  0.44  0.00
  YS02001652YS02001649    1.00   0.00  0.00  0.00  0.95  0.05  0.00  0.00  0.77  0.00
  YS02001655YS02001652    1.00   0.00  0.00  0.00  0.15  0.02  0.00  0.83  0.06  0.00
  YS02001658YS02001655    1.00   0.00  0.15  0.00  0.62  0.23  0.00  0.00  0.73  0.00
  YS02001661YS02001658    1.00   0.15  0.00  0.00  0.47  0.39  0.00  0.00  0.73  0.00
  YS02001664YS02001661    1.00   0.13  0.00  0.00  0.78  0.09  0.00  0.00  0.86  0.00
  YS02001745YS02001748    1.00   0.00  0.00  0.00  0.06  0.01  0.00  0.94  0.04  0.00
  YS02001748YS02001751    1.00   0.00  0.00  0.00  0.81  0.19  0.00  0.00  0.78  0.00
  YS02001751YS02001754    1.00   0.00  0.00  0.00  0.12  0.01  0.00  0.87  0.03  0.00
  YS02001754YS02001757    1.00   0.00  0.00  0.00  1.00  0.00  0.00  0.00  0.83  0.00
  YS02001757CaochengTiaoxuchi    1.00   0.00  0.00  0.00  0.97  0.03  0.00  0.00  0.65  0.00
  YS02001759YS02001757    1.00   0.00  0.00  0.00  1.00  0.00  0.00  0.00  0.54  0.00
  YS02001762YS02001759    1.00   0.00  0.00  0.00  1.00  0.00  0.00  0.00  0.07  0.00
  YS02001765YS02001762    1.00   0.00  0.00  0.00  1.00  0.00  0.00  0.00  0.69  0.00
  YS02001767YS02001765    1.00   0.00  0.00  0.00  1.00  0.00  0.00  0.00  0.01  0.00
  YS02001770YS02001767    1.00   0.00  0.00  0.00  1.00  0.00  0.00  0.00  0.00  0.00
  YS02001774YS02001770    1.00   0.00  0.14  0.00  0.69  0.00  0.17  0.00  0.04  0.00
  YS02001779YS02001774    1.00   0.00  0.00  0.00  1.00  0.00  0.00  0.00  0.81  0.00
  YS02001783YS02001784    1.00   0.00  0.20  0.00  0.80  0.00  0.00  0.00  0.56  0.00
  YS02001784YS02001785    1.00   0.00  0.00  0.00  1.00  0.00  0.00  0.00  0.19  0.00
  YS02001786YS02001788    1.00   0.00  0.00  0.00  0.80  0.20  0.00  0.00  0.00  0.00
  YS02001788YS02001790    1.00   0.00  0.00  0.00  0.23  0.77  0.00  0.00  0.83  0.00
  YS02001790YS02001791    1.00   0.00  0.00  0.00  0.01  0.99  0.00  0.00  0.15  0.00
  YS02001791YS02001793    1.00   0.00  0.00  0.00  0.00  1.00  0.00  0.00  0.01  0.00
  YS02001793JiankangQianchi    1.00   0.00  0.00  0.00  0.98  0.02  0.00  0.00  0.98  0.00
  YS02001882YS02001884    1.00   0.16  0.01  0.00  0.83  0.00  0.00  0.00  0.00  0.00
  YS02001884YS02001887    1.00   0.06  0.05  0.00  0.89  0.00  0.00  0.00  0.00  0.00
  YS02001887YS02001890    1.00   0.00  0.00  0.00  0.97  0.00  0.03  0.00  0.00  0.00
  YS02001890YS02001895    1.00   0.00  0.18  0.00  0.82  0.00  0.00  0.00  0.00  0.00
  YS02001895YS02001898    1.00   0.18  0.00  0.00  0.80  0.00  0.02  0.00  0.00  0.00
  YS02001898YS02001901    1.00   0.18  0.00  0.00  0.82  0.00  0.00  0.00  0.01  0.00
  YS02001901YS02001904    1.00   0.18  0.00  0.00  0.82  0.00  0.00  0.00  0.00  0.00
  YS02001904YS02001907    1.00   0.00  0.17  0.00  0.82  0.00  0.00  0.00  0.00  0.00
  YS02001907YS02006553    1.00   0.00  0.02  0.00  0.98  0.00  0.00  0.00  0.00  0.00
  YS02001910YS02001907    1.00   0.00  0.00  0.00  0.97  0.00  0.00  0.03  0.12  0.00
  YS02001915YS02001910    1.00   0.00  0.00  0.00  0.96  0.04  0.00  0.00  0.18  0.00
  YS02001918YS02001915    1.00   0.00  0.01  0.00  0.98  0.02  0.00  0.00  0.78  0.00
  YS02001920YS02001918    1.00   0.00  0.01  0.00  0.99  0.00  0.00  0.00  0.00  0.00
  YS02001923YS02001920    1.00   0.00  0.00  0.00  1.00  0.00  0.00  0.00  0.94  0.00
  YS02001926YS02001923    1.00   0.00  0.07  0.00  0.04  0.00  0.88  0.00  0.00  0.00
  YS02001929YS02001926    1.00   0.00  0.13  0.00  0.87  0.00  0.00  0.00  0.84  0.00
  YS02006553YS02006556    1.00   0.01  0.00  0.00  0.99  0.00  0.00  0.00  0.03  0.00
  YS02006556YS02006558    1.00   0.00  0.00  0.00  1.00  0.00  0.00  0.00  0.00  0.00
  YS02006558YS02006561    1.00   0.20  0.00  0.00  0.04  0.76  0.00  0.00  0.19  0.00
  YS02006561YS02001783    1.00   0.20  0.00  0.00  0.07  0.74  0.00  0.00  0.70  0.00
  YS02163301YS02001633    1.00   0.00  0.16  0.00  0.84  0.00  0.00  0.00  0.00  0.00
  YS02163601YS02164001    1.00   0.00  0.08  0.00  0.92  0.00  0.00  0.00  0.00  0.00
  YS02164001YS02001641    1.00   0.01  0.07  0.00  0.92  0.00  0.00  0.00  0.06  0.00
  
  
  *************************
  Conduit Surcharge Summary
  *************************
  
  ----------------------------------------------------------------------------
                                                           Hours        Hours 
                         --------- Hours Full --------   Above Full   Capacity
  Conduit                Both Ends  Upstream  Dnstream   Normal Flow   Limited
  ----------------------------------------------------------------------------
  WS02003072WS02003073        0.01      0.01      0.01      0.93         0.01
  WS02004403WS02004404        0.01      0.01      0.02      0.01         0.01
  WS02004404WS02004405        0.01      0.02      0.01      4.39         0.01
  WS02004405WS02004406        0.01      0.01      0.01      0.53         0.01
  WS02006109WS02006110        0.61      0.61      1.89      0.69         0.01
  WS02006110WS02006113        0.01      0.01      1.86      0.01         0.01
  WS02006111WS02006112        0.01      0.01      2.40      0.01         0.01
  WS02006112WS02006115        0.01      0.01      0.71      0.01         0.01
  WS02006228WS02006109        1.81      1.89      1.81      2.80         1.81
  WS02006229WS02006228        1.80      1.82      1.80      2.25         1.79
  WS02006230WS02006229        1.96      2.16      1.96      4.67         1.96
  WS02006231WS02006230        0.61      0.61      0.73      4.52         0.01
  WS02006232WS02006231        0.70      0.70      1.90      0.78         0.01
  WS02006234WS02006232        1.77      1.77      1.90      0.76         0.75
  WS02006235WS02006234        0.98      0.99      1.81      4.41         0.01
  WS02006238WS02006235        1.84      1.84      1.90      0.01         0.01
  WS02006239WS02006238        1.81      1.82      1.86      1.91         1.64
  WS02006240WS02006239        1.77      1.78      1.78      1.91         1.55
  WS02006242WS02006240        1.78      1.78      1.85      2.17         0.01
  WS02006243WS02006242        1.77      1.77      1.79      0.01         0.03
  WS02006245WS02006243        1.75      1.75      1.76      1.33         1.17
  WS02006247WS02006245        1.75      1.75      1.75      4.16         1.74
  WS02006248WS02006247        1.73      1.73      1.75      0.01         0.03
  WS02006249WS02006248        1.73      1.73      1.73      4.16         0.01
  WS02006251WS02006249        1.72      1.72      1.73      2.07         1.67
  WS02006252WS02006251        2.15      2.15      2.15      2.15         0.01
  WS02006256WS02006235        4.43      4.47      6.26      1.16         0.01
  YS02001580YS02001583        0.41      0.41      0.45      0.01         0.01
  YS02001583YS02001586        0.41      0.41      0.52      0.01         0.01
  YS02001586YS02001590        0.53      0.53      0.59      0.01         0.01
  YS02001590YS02001593        0.59      0.59      0.60      0.62         0.01
  YS02001593YS02001596        0.60      0.60      0.68      0.01         0.01
  YS02001596YS02001600        0.72      0.72      0.81      0.01         0.01
  YS02001600YS02001601        0.86      0.86      1.15      0.01         0.01
  YS02001601YS02001602        1.03      1.03      1.18      0.82         0.01
  YS02001602YS02001605        0.98      0.98      1.03      2.02         0.01
  YS02001605YS02001607        0.93      0.98      0.93      1.11         0.93
  YS02001607YS02001610        0.56      0.56      0.57      0.01         0.01
  YS02001610YS02001613        0.55      0.55      0.57      0.01         0.01
  YS02001613YS02001616        0.51      0.51      0.55      0.01         0.01
  YS02001616YS02001619        0.50      0.50      0.51      0.01         0.01
  YS02001619YS02001622        0.50      0.50      0.50      0.61         0.48
  YS02001622YS02001625        0.50      0.50      0.65      0.01         0.01
  YS02001625YS02001629        0.46      0.46      0.65      0.01         0.01
  YS02001629YS02163301        0.64      0.64      0.65      0.19         0.18
  YS02001633YS02163601        0.66      0.66      0.69      0.32         0.32
  YS02001641YS02001644        0.57      0.60      0.57      1.23         0.56
  YS02001644YS02001647        0.39      0.39      0.57      0.04         0.01
  YS02001647YS02001649        0.39      0.39      0.48      0.01         0.01
  YS02001649YS02001757        0.47      0.48      0.52      0.12         0.12
  YS02001652YS02001649        0.34      0.34      0.48      0.01         0.01
  YS02001655YS02001652        0.22      0.22      0.33      0.01         0.01
  YS02001658YS02001655        0.10      0.10      0.22      0.01         0.01
  YS02001661YS02001658        0.01      0.01      0.10      0.01         0.01
  YS02001664YS02001661        0.01      0.01      0.02      0.01         0.01
  YS02001745YS02001748        0.01      0.01      0.02      0.01         0.01
  YS02001748YS02001751        0.08      0.08      0.14      0.01         0.01
  YS02001751YS02001754        0.14      0.14      0.24      0.01         0.01
  YS02001754YS02001757        0.27      0.27      0.52      0.01         0.01
  YS02001757CaochengTiaoxuchi        0.48      0.52      1.66      0.28         0.21
  YS02001759YS02001757        0.44      0.44      0.52      0.01         0.02
  YS02001762YS02001759        0.41      0.41      0.44      0.01         0.02
  YS02001765YS02001762        0.37      0.37      0.41      0.01         0.01
  YS02001767YS02001765        0.35      0.35      0.37      0.01         0.03
  YS02001770YS02001767        0.35      0.35      0.35      0.39         0.27
  YS02001774YS02001770        0.33      0.33      0.39      0.01         0.01
  YS02001779YS02001774        0.26      0.26      0.39      0.01         0.01
  YS02001783YS02001784        0.37      0.39      0.37      0.52         0.37
  YS02001784YS02001785        0.28      0.37      0.28      0.70         0.28
  YS02001786YS02001788        0.01      0.28      0.01      0.60         0.01
  YS02001790YS02001791        0.01      0.01      0.01      0.36         0.01
  YS02001793JiankangQianchi        0.01      0.01      7.42      0.01         0.01
  YS02001882YS02001884        0.35      0.35      0.36      0.01         0.01
  YS02001884YS02001887        0.38      0.38      0.39      0.01         0.01
  YS02001887YS02001890        0.40      0.40      0.41      0.05         0.01
  YS02001890YS02001895        0.34      0.34      0.42      0.01         0.01
  YS02001895YS02001898        0.33      0.33      0.34      0.01         0.01
  YS02001898YS02001901        0.34      0.34      0.37      0.01         0.01
  YS02001901YS02001904        0.37      0.37      0.37      0.01         0.01
  YS02001904YS02001907        0.37      0.37      0.59      0.01         0.01
  YS02001907YS02006553        0.71      0.71      0.77      0.01         0.01
  YS02001910YS02001907        0.42      0.42      0.57      0.01         0.01
  YS02001915YS02001910        0.35      0.35      0.42      0.01         0.01
  YS02001918YS02001915        0.28      0.28      0.35      0.01         0.01
  YS02001920YS02001918        0.28      0.28      0.29      0.01         0.01
  YS02001923YS02001920        0.23      0.23      0.29      0.01         0.01
  YS02001926YS02001923        0.01      0.01      0.03      0.01         0.01
  YS02001929YS02001926        0.01      0.01      0.03      0.01         0.01
  YS02006553YS02006556        0.50      0.50      0.58      0.01         0.01
  YS02006556YS02006558        0.54      0.54      0.60      0.01         0.01
  YS02006558YS02006561        0.31      0.49      0.31      0.67         0.31
  YS02006561YS02001783        0.24      0.24      0.39      0.01         0.01
  YS02163301YS02001633        0.65      0.65      0.68      0.01         0.01
  YS02163601YS02164001        0.61      0.61      0.69      0.06         0.01
  YS02164001YS02001641        0.60      0.61      0.60      0.59         0.49
  
  
  ***************
  Pumping Summary
  ***************
  
  ---------------------------------------------------------------------------------------------------------
                                                  Min       Avg       Max     Total     Power    % Time Off
                        Percent   Number of      Flow      Flow      Flow    Volume     Usage    Pump Curve
  Pump                 Utilized   Start-Ups       LPS       LPS       LPS  10^6 ltr     Kw-hr    Low   High
  ---------------------------------------------------------------------------------------------------------
  CC-R1                   13.66           3      0.00    683.00    683.00     2.687     49.28    0.0   18.6
  CC-R2                   10.29           6      0.00    683.00    683.00     2.024     37.10    0.0   24.7
  CC-S1                   51.51           9      0.00    200.00    200.00     2.967     18.35    0.0    0.0
  CC-S2                   28.04          12      0.00    200.00    200.00     1.615      9.88    0.0    0.0
  JK-R1                    4.70           8      0.00   1000.00   1000.00     1.354     13.24    0.0    0.0
  JK-R2                    2.44           8      0.00   1000.00   1000.00     0.703      6.28    0.0    0.0
  JK-S                    14.38          13      0.00    300.00    300.00     1.242     19.70    0.0    0.0
  

  Analysis begun on:  Wed Apr 23 23:57:57 2025
  Analysis ended on:  Wed Apr 23 23:57:58 2025
  Total elapsed time: 00:00:01