
  EPA STORM WATER MANAGEMENT MODEL - VERSION 5.2 (Build 5.2.4)
  PYSWMM TOOLKIT API - VERSION v1.0 (2023-11-27)
  ------------------------------------------------------------

  WARNING 04: minimum elevation drop used for Conduit WS02004404WS02004405
  WARNING 03: negative offset ignored for Link YS02001904YS02001907
  
  ****************
  Analysis Options
  ****************
  Flow Units ............... LPS
  Process Models:
    Rainfall/Runoff ........ YES
    RDII ................... NO
    Snowmelt ............... NO
    Groundwater ............ NO
    Flow Routing ........... YES
    Ponding Allowed ........ NO
    Water Quality .......... NO
  Infiltration Method ...... HORTON
  Flow Routing Method ...... DYNWAVE
  Surcharge Method ......... EXTRAN
  Starting Date ............ 08/28/2015 08:00:00
  Ending Date .............. 08/28/2015 16:00:00
  Antecedent Dry Days ...... 8.0
  Report Time Step ......... 00:01:00
  Wet Time Step ............ 00:01:00
  Dry Time Step ............ 00:01:00
  Routing Time Step ........ 30.00 sec
  Variable Time Step ....... YES
  Maximum Trials ........... 8
  Number of Threads ........ 4
  Head Tolerance ........... 0.001500 m
  
  
  **************************        Volume         Depth
  Runoff Quantity Continuity     hectare-m            mm
  **************************     ---------       -------
  Total Precipitation ......         2.234        67.346
  Evaporation Loss .........         0.000         0.000
  Infiltration Loss ........         0.100         3.002
  Surface Runoff ...........         2.102        63.364
  Final Storage ............         0.033         0.994
  Continuity Error (%) .....        -0.021
  
  
  **************************        Volume        Volume
  Flow Routing Continuity        hectare-m      10^6 ltr
  **************************     ---------     ---------
  Dry Weather Inflow .......         0.025         0.251
  Wet Weather Inflow .......         2.102        21.022
  Groundwater Inflow .......         0.000         0.000
  RDII Inflow ..............         0.000         0.000
  External Inflow ..........         0.083         0.834
  External Outflow .........         1.597        15.973
  Flooding Loss ............         0.677         6.769
  Evaporation Loss .........         0.000         0.000
  Exfiltration Loss ........         0.000         0.000
  Initial Stored Volume ....         0.243         2.431
  Final Stored Volume ......         0.186         1.859
  Continuity Error (%) .....        -0.260
  
  
  *************************
  Highest Continuity Errors
  *************************
  Node YS02001884 (5.27%)
  Node YS02001583 (-4.43%)
  
  
  ***************************
  Time-Step Critical Elements
  ***************************
  Link WS02006252WS02006251 (59.80%)
  Link WS02004404WS02004405 (11.93%)
  Link WS02006238WS02006235 (8.86%)
  Link WS02006235WS02006234 (5.78%)
  Link YS02001791YS02001793 (4.52%)
  
  
  ********************************
  Highest Flow Instability Indexes
  ********************************
  Link WS02006113WS02006111 (55)
  Link WS02006111WS02006112 (27)
  Link WS02004404WS02004405 (20)
  Link WS02004403WS02004404 (17)
  Link WS02004405WS02004406 (17)
  
  
  *********************************
  Most Frequent Nonconverging Nodes
  *********************************
  Node CC-1 (7.39%)
  Node CC-2 (7.39%)
  Node JK-1 (7.39%)
  Node JK-2 (7.39%)
  Node WSC (7.39%)
  
  
  *************************
  Routing Time Step Summary
  *************************
  Minimum Time Step           :     0.01 sec
  Average Time Step           :     1.60 sec
  Maximum Time Step           :     7.04 sec
  % of Time in Steady State   :     0.00
  Average Iterations per Step :     2.76
  % of Steps Not Converging   :     7.39
  Time Step Frequencies       :
     30.000 - 13.228 sec      :     0.00 %
     13.228 -  5.833 sec      :     6.80 %
      5.833 -  2.572 sec      :    11.24 %
      2.572 -  1.134 sec      :    18.06 %
      1.134 -  0.500 sec      :    63.90 %
  
  
  ***************************
  Subcatchment Runoff Summary
  ***************************
  
  ------------------------------------------------------------------------------------------------------------------------------
                            Total      Total      Total      Total     Imperv       Perv      Total       Total     Peak  Runoff
                           Precip      Runon       Evap      Infil     Runoff     Runoff     Runoff      Runoff   Runoff   Coeff
  Subcatchment                 mm         mm         mm         mm         mm         mm         mm    10^6 ltr      LPS
  ------------------------------------------------------------------------------------------------------------------------------
  sub60                     67.35       0.00       0.00       1.81      58.06       6.28      64.34        0.85   571.03   0.955
  sub61                     67.35       0.00       0.00       2.61      54.77       8.84      63.60        1.17   792.22   0.944
  sub62                     67.35       0.00       0.00       1.20      60.67       4.19      64.86        1.78  1118.48   0.963
  sub63                     67.35       0.00       0.00       4.82      46.85      14.71      61.56        1.40   892.50   0.914
  sub64                     67.35       0.00       0.00       2.44      56.04       7.67      63.71        1.53   909.62   0.946
  sub65                     67.35       0.00       0.00       2.11      57.34       6.65      63.99        1.76  1019.96   0.950
  sub66                     67.35       0.00       0.00       5.98      46.74      13.55      60.29        2.81  1339.32   0.895
  sub67                     67.35       0.00       0.00       1.16      60.72       4.23      64.95        1.21   855.41   0.964
  sub68                     67.35       0.00       0.00       2.17      56.73       7.27      64.00        1.76  1147.02   0.950
  sub69                     67.35       0.00       0.00       1.93      57.13       8.18      65.31        2.42  1357.84   0.970
  sub70                     67.35       0.00       0.00       6.45      44.29      16.45      60.73        1.75   753.10   0.902
  sub71                     67.35       0.00       0.00       1.23      60.63       4.16      64.79        1.69   986.01   0.962
  sub72                     67.35       0.00       0.00       1.10      61.23       3.62      64.85        0.89   478.94   0.963
  
  
  ******************
  Node Depth Summary
  ******************
  
  ---------------------------------------------------------------------------------
                                 Average  Maximum  Maximum  Time of Max    Reported
                                   Depth    Depth      HGL   Occurrence   Max Depth
  Node                 Type       Meters   Meters   Meters  days hr:min      Meters
  ---------------------------------------------------------------------------------
  WS02003060           JUNCTION     0.26     0.38     5.32     0  02:24        0.38
  WS02003066           JUNCTION     0.21     0.30     5.85     0  02:23        0.30
  WS02003067           JUNCTION     0.54     0.70     6.02     0  02:23        0.70
  WS02003069           JUNCTION     0.29     0.43     5.02     0  02:24        0.43
  WS02003072           JUNCTION     0.35     0.50     4.87     0  02:27        0.50
  WS02003073           JUNCTION     0.20     0.30     4.36     0  02:29        0.30
  WS02004401           JUNCTION     0.64     0.88     6.88     0  02:22        0.88
  WS02004402           JUNCTION     0.67     0.91     6.87     0  02:24        0.90
  WS02004403           JUNCTION     0.70     0.92     6.85     0  02:24        0.92
  WS02004404           JUNCTION     0.77     1.04     6.89     0  02:34        1.00
  WS02004405           JUNCTION     0.75     0.97     6.82     0  02:23        0.97
  WS02004406           JUNCTION     0.76     0.96     6.79     0  02:21        0.96
  WS02004407           JUNCTION     0.20     0.30     6.61     0  02:21        0.30
  WS02004409           JUNCTION     0.44     0.67     6.44     0  02:22        0.67
  WS02004410           JUNCTION     0.46     0.68     6.40     0  02:22        0.68
  WS02004411           JUNCTION     0.48     0.69     6.37     0  02:22        0.69
  WS02004412           JUNCTION     0.50     0.70     6.34     0  02:26        0.70
  WS02004413           JUNCTION     0.66     0.86     6.33     0  02:23        0.86
  WS02006109           JUNCTION     0.69     1.45     8.07     0  01:49        0.98
  WS02006110           JUNCTION     0.69     1.59     8.18     0  01:49        0.93
  WS02006111           JUNCTION     0.19     0.29     6.99     0  02:38        0.29
  WS02006112           JUNCTION     0.80     1.09     6.97     0  02:20        1.08
  WS02006113           JUNCTION     0.30     0.46     7.35     0  02:58        0.46
  WS02006115           JUNCTION     0.52     0.78     6.92     0  02:22        0.78
  WS02006116           JUNCTION     0.61     0.86     6.90     0  02:22        0.86
  WS02006228           JUNCTION     0.68     1.32     7.97     0  01:49        1.02
  WS02006229           JUNCTION     0.65     1.39     8.09     0  01:49        1.04
  WS02006230           JUNCTION     0.65     1.61     8.35     0  01:49        1.16
  WS02006231           JUNCTION     0.46     1.31     8.43     0  01:49        0.94
  WS02006232           JUNCTION     0.60     1.42     8.46     0  01:49        1.12
  WS02006234           JUNCTION     0.52     1.49     8.65     0  01:48        1.24
  WS02006235           JUNCTION     0.56     1.65     8.81     0  01:48        1.41
  WS02006238           JUNCTION     0.59     1.70     8.84     0  01:48        1.46
  WS02006239           JUNCTION     0.56     1.69     8.90     0  01:48        1.50
  WS02006240           JUNCTION     0.52     1.62     8.92     0  01:48        1.48
  WS02006242           JUNCTION     0.59     1.55     8.82     0  01:48        1.53
  WS02006243           JUNCTION     0.49     1.44     8.86     0  01:48        1.39
  WS02006245           JUNCTION     0.49     1.36     8.85     0  01:48        1.30
  WS02006247           JUNCTION     0.52     1.30     8.80     0  01:48        1.25
  WS02006248           JUNCTION     0.47     1.10     8.69     0  01:48        1.10
  WS02006249           JUNCTION     0.51     1.09     8.69     0  01:49        1.09
  WS02006251           JUNCTION     0.50     1.82     9.49     0  02:02        1.14
  WS02006252           JUNCTION     0.38     1.50     9.74     0  00:00        0.70
  WS02006256           JUNCTION     0.99     2.35     9.28     0  00:00        2.35
  WSF200               JUNCTION     0.19     0.29     5.53     0  02:23        0.29
  YS02001580           JUNCTION     0.08     1.05     9.59     0  01:53        0.77
  YS02001583           JUNCTION     0.11     1.14     9.64     0  01:53        0.84
  YS02001586           JUNCTION     0.16     1.13     9.30     0  01:53        1.13
  YS02001590           JUNCTION     0.25     1.40     9.26     0  02:08        1.40
  YS02001593           JUNCTION     0.19     1.29     9.15     0  01:54        1.28
  YS02001596           JUNCTION     0.25     1.65     9.07     0  01:53        1.65
  YS02001600           JUNCTION     0.30     1.86     8.99     0  02:23        1.86
  YS02001601           JUNCTION     0.48     2.06     8.90     0  01:52        2.06
  YS02001602           JUNCTION     0.39     1.87     8.77     0  01:53        1.87
  YS02001605           JUNCTION     0.37     1.78     8.68     0  01:53        1.78
  YS02001607           JUNCTION     0.38     1.65     8.49     0  01:59        1.64
  YS02001610           JUNCTION     0.42     1.68     8.48     0  01:53        1.68
  YS02001613           JUNCTION     0.38     1.66     8.50     0  02:00        1.65
  YS02001616           JUNCTION     0.31     1.60     8.51     0  02:00        1.60
  YS02001619           JUNCTION     0.29     1.61     8.53     0  02:00        1.59
  YS02001622           JUNCTION     0.28     1.57     8.47     0  02:00        1.56
  YS02001625           JUNCTION     0.55     1.78     8.38     0  01:56        1.78
  YS02001629           JUNCTION     0.38     1.85     8.40     0  01:56        1.85
  YS02001633           JUNCTION     0.46     2.06     8.51     0  01:57        1.99
  YS02001641           JUNCTION     0.45     1.95     8.39     0  01:57        1.94
  YS02001644           JUNCTION     0.45     1.92     8.35     0  01:57        1.92
  YS02001647           JUNCTION     0.24     1.77     8.38     0  01:58        1.72
  YS02001649           JUNCTION     0.28     1.99     8.38     0  01:59        1.92
  YS02001652           JUNCTION     0.18     2.08     8.67     0  01:57        1.76
  YS02001655           JUNCTION     0.14     2.20     9.05     0  01:57        1.55
  YS02001658           JUNCTION     0.10     1.81     8.95     0  01:58        1.31
  YS02001661           JUNCTION     0.14     1.37     8.77     0  01:59        1.10
  YS02001664           JUNCTION     0.05     0.61     8.53     0  01:59        0.58
  YS02001745           JUNCTION     0.05     0.81     8.33     0  01:59        0.78
  YS02001748           JUNCTION     0.09     1.72     8.79     0  01:58        1.20
  YS02001751           JUNCTION     0.12     1.68     8.56     0  01:58        1.38
  YS02001754           JUNCTION     0.16     2.20     8.81     0  01:57        1.62
  YS02001757           JUNCTION     0.30     2.00     8.26     0  01:58        1.95
  YS02001759           JUNCTION     0.25     1.98     8.34     0  01:59        1.95
  YS02001762           JUNCTION     0.24     1.97     8.37     0  01:58        1.93
  YS02001765           JUNCTION     0.22     1.95     8.40     0  01:58        1.90
  YS02001767           JUNCTION     0.22     1.94     8.42     0  01:57        1.89
  YS02001770           JUNCTION     0.23     1.95     8.44     0  01:57        1.95
  YS02001774           JUNCTION     0.30     2.05     8.47     0  01:57        1.99
  YS02001779           JUNCTION     0.15     1.68     8.37     0  01:57        1.68
  YS02001783           JUNCTION     0.20     1.53     7.67     0  01:56        1.22
  YS02001784           JUNCTION     0.21     1.27     7.34     0  01:56        1.14
  YS02001786           JUNCTION     0.18     1.02     7.05     0  01:56        0.87
  YS02001788           JUNCTION     0.13     0.62     6.60     0  02:04        0.62
  YS02001790           JUNCTION     0.15     0.72     6.37     0  01:59        0.72
  YS02001791           JUNCTION     0.10     0.44     5.91     0  02:02        0.43
  YS02001793           JUNCTION     0.05     0.30     5.13     0  01:59        0.27
  YS02001882           JUNCTION     0.27     1.83     8.55     0  01:55        1.64
  YS02001884           JUNCTION     0.36     1.93     8.55     0  01:55        1.75
  YS02001887           JUNCTION     0.44     1.95     8.49     0  01:55        1.83
  YS02001890           JUNCTION     0.47     1.81     8.32     0  01:55        1.81
  YS02001895           JUNCTION     0.24     1.59     8.33     0  01:55        1.56
  YS02001898           JUNCTION     0.25     1.60     8.33     0  01:55        1.56
  YS02001901           JUNCTION     0.36     1.68     8.29     0  01:56        1.68
  YS02001904           JUNCTION     0.34     1.64     8.27     0  01:56        1.63
  YS02001907           JUNCTION     0.67     1.96     8.25     0  01:56        1.96
  YS02001910           JUNCTION     0.46     2.01     8.52     0  01:57        1.89
  YS02001915           JUNCTION     0.27     2.00     8.72     0  01:55        1.78
  YS02001918           JUNCTION     0.15     1.81     8.88     0  01:57        1.46
  YS02001920           JUNCTION     0.22     2.10     9.11     0  01:57        1.54
  YS02001923           JUNCTION     0.11     2.03     9.29     0  01:57        1.31
  YS02001926           JUNCTION     0.14     1.90     9.35     0  01:56        1.13
  YS02001929           JUNCTION     0.08     1.78     9.47     0  01:57        0.88
  YS02006553           JUNCTION     0.67     2.04     8.33     0  01:56        1.97
  YS02006556           JUNCTION     0.65     2.10     8.41     0  01:56        1.95
  YS02006558           JUNCTION     0.69     2.16     8.43     0  01:56        2.00
  YS02006561           JUNCTION     0.13     1.35     8.01     0  01:56        0.90
  YS02163301           JUNCTION     0.41     1.95     8.46     0  01:57        1.91
  YS02163601           JUNCTION     0.51     2.08     8.47     0  01:57        2.01
  YS02164001           JUNCTION     0.44     1.99     8.45     0  01:57        1.93
  CC-1                 OUTFALL      0.00     0.00     0.00     0  00:00        0.00
  CC-2                 OUTFALL      0.00     0.00     0.00     0  00:00        0.00
  JK-1                 OUTFALL      0.00     0.00     0.00     0  00:00        0.00
  JK-2                 OUTFALL      0.00     0.00     0.00     0  00:00        0.00
  WSC                  OUTFALL      0.20     0.30     0.97     0  02:29        0.30
  CC-storage           STORAGE      0.82     1.58     7.08     0  02:31        1.58
  JK-storage           STORAGE      2.90     4.23     5.03     0  02:14        4.20
  
  
  *******************
  Node Inflow Summary
  *******************
  
  -------------------------------------------------------------------------------------------------
                                  Maximum  Maximum                  Lateral       Total        Flow
                                  Lateral    Total  Time of Max      Inflow      Inflow     Balance
                                   Inflow   Inflow   Occurrence      Volume      Volume       Error
  Node                 Type           LPS      LPS  days hr:min    10^6 ltr    10^6 ltr     Percent
  -------------------------------------------------------------------------------------------------
  WS02003060           JUNCTION     16.53   557.59     0  02:24       0.476        6.58       0.031
  WS02003066           JUNCTION      0.00   540.48     0  02:23           0        6.11       0.021
  WS02003067           JUNCTION      0.00   540.32     0  02:23           0        6.11       0.067
  WS02003069           JUNCTION      0.32   557.46     0  02:24     0.00922        6.59       0.055
  WS02003072           JUNCTION      0.00   556.79     0  02:27           0        6.59       0.099
  WS02003073           JUNCTION      1.82   558.53     0  02:28      0.0524        6.63       0.079
  WS02004401           JUNCTION      0.00   542.17     0  02:27           0         6.2       0.160
  WS02004402           JUNCTION      0.00   546.29     0  02:22           0        6.19       0.163
  WS02004403           JUNCTION      0.00   543.89     0  02:45           0        6.18       0.159
  WS02004404           JUNCTION      0.16   562.90     0  02:30     0.00467        6.18       0.142
  WS02004405           JUNCTION      0.04   610.42     0  02:24      0.0011        6.17       0.094
  WS02004406           JUNCTION      0.00   551.05     0  02:21           0        6.17       0.330
  WS02004407           JUNCTION      0.00   543.48     0  02:21           0        6.15       0.016
  WS02004409           JUNCTION      0.00   542.24     0  02:21           0        6.14       0.039
  WS02004410           JUNCTION      0.00   541.68     0  02:22           0        6.14       0.066
  WS02004411           JUNCTION      0.00   541.23     0  02:22           0        6.14       0.086
  WS02004412           JUNCTION      0.00   540.97     0  02:22           0        6.13       0.116
  WS02004413           JUNCTION      0.00   540.98     0  02:23           0        6.13       0.208
  WS02006109           JUNCTION      1.23   561.25     0  01:49      0.0354        6.25       0.142
  WS02006110           JUNCTION      0.00   562.33     0  03:06           0        6.24       0.106
  WS02006111           JUNCTION      0.00   560.48     0  01:51           0        6.23       0.009
  WS02006112           JUNCTION      0.00   543.06     0  03:00           0        6.23       0.277
  WS02006113           JUNCTION      0.00   568.58     0  03:06           0        6.24       0.027
  WS02006115           JUNCTION      0.00   552.10     0  03:06           0        6.22       0.101
  WS02006116           JUNCTION      0.00   541.79     0  02:31           0        6.21       0.089
  WS02006228           JUNCTION      0.00   559.81     0  01:49           0        6.22       0.059
  WS02006229           JUNCTION      0.00   559.69     0  01:49           0        6.22       0.063
  WS02006230           JUNCTION     10.28   586.35     0  02:25       0.296        6.23       0.069
  WS02006231           JUNCTION      0.00   579.69     0  01:48           0        5.93       0.001
  WS02006232           JUNCTION      0.00   576.71     0  01:48           0        5.94       0.087
  WS02006234           JUNCTION      0.00   569.60     0  01:48           0        5.93      -0.092
  WS02006235           JUNCTION      0.00   560.61     0  01:48           0        5.95       0.087
  WS02006238           JUNCTION      0.00   421.23     0  03:01           0        4.97      -0.179
  WS02006239           JUNCTION      0.00   421.03     0  03:01           0        4.96      -0.162
  WS02006240           JUNCTION      0.00   418.57     0  03:01           0        4.95      -0.045
  WS02006242           JUNCTION      0.00   418.52     0  03:01           0        4.95      -0.002
  WS02006243           JUNCTION      0.00   417.56     0  03:01           0        4.94      -0.024
  WS02006245           JUNCTION      0.00   417.19     0  03:01           0        4.95       0.216
  WS02006247           JUNCTION      0.00   417.29     0  03:01           0        4.96       0.018
  WS02006248           JUNCTION      0.00   424.85     0  01:58           0        4.96       0.000
  WS02006249           JUNCTION      0.00   472.98     0  01:35           0        5.24       0.219
  WS02006251           JUNCTION      0.08   412.52     0  02:02     0.00222        5.24       0.000
  WS02006252           JUNCTION      0.00   400.00     0  00:00           0        5.23      -0.095
  WS02006256           JUNCTION      0.00   300.00     0  00:00           0        1.45      -0.403
  WSF200               JUNCTION      0.00   540.61     0  02:23           0        6.11       0.006
  YS02001580           JUNCTION      0.00   112.13     0  01:53           0     0.00391      -5.483
  YS02001583           JUNCTION      0.00   158.94     0  01:53           0      0.0151      -4.238
  YS02001586           JUNCTION    753.10   753.10     0  02:04        1.75        1.77       0.063
  YS02001590           JUNCTION      0.00   318.05     0  02:08           0        1.36      -0.032
  YS02001593           JUNCTION      0.00   317.97     0  02:11           0        1.36       0.007
  YS02001596           JUNCTION      0.00   317.98     0  02:17           0        1.36      -0.003
  YS02001600           JUNCTION      0.00   318.08     0  02:11           0        1.36       0.016
  YS02001601           JUNCTION   1357.84  1675.24     0  02:03        2.42        3.77       0.017
  YS02001602           JUNCTION      0.00   519.73     0  01:52           0        2.29       0.019
  YS02001605           JUNCTION      0.00   519.07     0  01:52           0        2.17       0.033
  YS02001607           JUNCTION      0.00   519.00     0  01:52           0        2.17       0.087
  YS02001610           JUNCTION      0.00   738.96     0  02:04           0        2.42       0.084
  YS02001613           JUNCTION      0.00   521.17     0  01:52           0        1.94       0.084
  YS02001616           JUNCTION      0.00   519.46     0  01:52           0        1.94       0.026
  YS02001619           JUNCTION   1339.32  1339.32     0  02:04        2.81         4.5      -0.002
  YS02001622           JUNCTION      0.00   950.81     0  02:01           0        4.24      -0.003
  YS02001625           JUNCTION      0.00  1346.61     0  02:04           0        4.45       0.194
  YS02001629           JUNCTION      0.00   929.93     0  01:56           0        3.51       0.018
  YS02001633           JUNCTION   1020.16  1403.49     0  01:56        1.77        5.02       0.069
  YS02001641           JUNCTION      0.00  1403.53     0  01:56           0        4.78       0.057
  YS02001644           JUNCTION    909.66  1832.39     0  01:56        1.53        6.31       0.050
  YS02001647           JUNCTION      0.00  1832.74     0  01:56           0        5.92       0.003
  YS02001649           JUNCTION      0.00  2112.49     0  01:56           0        7.32       0.002
  YS02001652           JUNCTION      0.00   892.54     0  02:02           0         1.4      -0.073
  YS02001655           JUNCTION      0.15   891.83     0  02:02     0.00443         1.4      -0.063
  YS02001658           JUNCTION      0.00   891.70     0  02:02           0         1.4       0.000
  YS02001661           JUNCTION      0.00   891.32     0  02:02           0         1.4       0.007
  YS02001664           JUNCTION    892.50   892.50     0  02:02         1.4         1.4      -0.008
  YS02001745           JUNCTION    571.03   571.03     0  02:02       0.846       0.846       0.183
  YS02001748           JUNCTION      0.04   595.14     0  02:01      0.0013       0.846      -0.340
  YS02001751           JUNCTION      0.01   598.64     0  02:01    0.000317       0.854       0.121
  YS02001754           JUNCTION      0.26   599.04     0  02:01     0.00749       0.865      -0.160
  YS02001757           JUNCTION      0.00  3535.69     0  02:01           0          11       0.048
  YS02001759           JUNCTION    792.26  1437.24     0  02:01        1.17        2.79      -0.006
  YS02001762           JUNCTION      0.00   792.77     0  01:58           0        1.62       0.001
  YS02001765           JUNCTION      0.00   795.66     0  01:58           0        1.62       0.006
  YS02001767           JUNCTION      0.54   797.29     0  01:58      0.0154        1.62      -0.001
  YS02001770           JUNCTION   1118.64  1118.64     0  02:02        1.78        1.82      -0.017
  YS02001774           JUNCTION      0.00   492.12     0  02:02           0        0.24       0.449
  YS02001779           JUNCTION      0.01   492.15     0  02:02    0.000144       0.197      -0.309
  YS02001783           JUNCTION      0.00  1165.79     0  02:00           0        4.11       0.006
  YS02001784           JUNCTION      1.06  1166.89     0  02:00      0.0305        4.14       0.012
  YS02001786           JUNCTION      0.06  1166.87     0  02:00     0.00162        4.14       0.017
  YS02001788           JUNCTION      0.07  1167.00     0  02:01     0.00204        4.14       0.008
  YS02001790           JUNCTION      0.15  1176.65     0  02:00     0.00446        4.15       0.026
  YS02001791           JUNCTION      0.00  1288.51     0  02:00           0        4.14      -0.028
  YS02001793           JUNCTION      0.00  1261.80     0  01:59           0        4.15       0.005
  YS02001882           JUNCTION      0.00    44.14     0  01:54           0      0.0125       5.042
  YS02001884           JUNCTION      0.00    73.74     0  01:54           0      0.0482       5.563
  YS02001887           JUNCTION    855.86   856.22     0  02:01        1.22        1.25       0.352
  YS02001890           JUNCTION      0.00   856.23     0  02:01           0        1.21       0.414
  YS02001895           JUNCTION      0.00   517.46     0  02:05           0        1.09       0.147
  YS02001898           JUNCTION      0.00   517.48     0  02:03           0        1.09       0.001
  YS02001901           JUNCTION      0.00   517.52     0  02:05           0         1.1       0.300
  YS02001904           JUNCTION      0.00   517.73     0  02:05           0         1.1       0.243
  YS02001907           JUNCTION      0.00  1999.08     0  02:02           0        3.76       0.447
  YS02001910           JUNCTION      0.00  1483.04     0  02:03           0        2.67       0.267
  YS02001915           JUNCTION    986.03  1482.47     0  02:02         1.7        2.71       0.057
  YS02001918           JUNCTION      0.00   497.23     0  02:02           0        1.04       0.023
  YS02001920           JUNCTION      2.87   497.13     0  02:02      0.0827        1.03       0.111
  YS02001923           JUNCTION      0.04   494.53     0  02:02     0.00109       0.927      -0.036
  YS02001926           JUNCTION      0.05   555.59     0  01:56      0.0015       0.906      -0.011
  YS02001929           JUNCTION    478.94   478.94     0  02:03       0.892       0.894      -0.016
  YS02006553           JUNCTION      0.00   798.26     0  02:19           0        2.37       0.499
  YS02006556           JUNCTION      0.00   798.60     0  02:19           0        2.38       0.331
  YS02006558           JUNCTION   1147.90  1173.86     0  01:56        1.79        4.14       0.085
  YS02006561           JUNCTION      0.00  1173.47     0  01:56           0        4.11       0.002
  YS02163301           JUNCTION      0.00   929.73     0  01:56           0         3.5       0.042
  YS02163601           JUNCTION      0.11  1403.64     0  01:56     0.00317        4.78       0.103
  YS02164001           JUNCTION      0.00  1403.33     0  01:56           0        4.78       0.046
  CC-1                 OUTFALL       0.00   683.00     0  00:00           0        3.45       0.000
  CC-2                 OUTFALL       0.00   683.00     0  00:00           0        3.13       0.000
  JK-1                 OUTFALL       0.00  1000.00     0  00:00           0        1.58       0.000
  JK-2                 OUTFALL       0.00  1000.00     0  00:00           0        1.19       0.000
  WSC                  OUTFALL       0.00   558.50     0  02:29           0        6.63       0.000
  CC-storage           STORAGE       0.00  3535.87     0  02:01           0        13.2      -0.236
  JK-storage           STORAGE       0.00  1263.62     0  02:06           0         4.3      -0.240
  
  
  **********************
  Node Surcharge Summary
  **********************
  
  Surcharging occurs when water rises above the top of the highest conduit.
  ---------------------------------------------------------------------
                                               Max. Height   Min. Depth
                                   Hours       Above Crown    Below Rim
  Node                 Type      Surcharged         Meters       Meters
  ---------------------------------------------------------------------
  WS02004404           JUNCTION        0.07          0.037        2.743
  WS02006109           JUNCTION        2.22          0.630        1.190
  WS02006110           JUNCTION        0.99          0.684        1.166
  WS02006112           JUNCTION        1.18          0.090        1.590
  WS02006228           JUNCTION        2.21          0.488        1.712
  WS02006229           JUNCTION        2.23          0.592        1.858
  WS02006230           JUNCTION        0.98          0.528        1.042
  WS02006231           JUNCTION        1.10          0.600        0.930
  WS02006232           JUNCTION        2.28          0.719        0.761
  WS02006234           JUNCTION        1.37          0.770        0.470
  WS02006235           JUNCTION        2.21          0.935        0.355
  WS02006238           JUNCTION        2.25          0.981        0.449
  WS02006239           JUNCTION        2.23          0.952        0.338
  WS02006240           JUNCTION        2.24          0.914        0.476
  WS02006242           JUNCTION        2.31          0.820        0.000
  WS02006243           JUNCTION        2.23          0.727        0.043
  WS02006245           JUNCTION        2.18          0.654        0.196
  WS02006247           JUNCTION        2.20          0.587        0.173
  WS02006248           JUNCTION        2.15          0.380        0.000
  WS02006249           JUNCTION        2.18          0.390        0.000
  WS02006251           JUNCTION        1.10          0.789        0.391
  WS02006252           JUNCTION        2.62          1.100        0.000
  WS02006256           JUNCTION        6.42          2.050        0.000
  YS02001580           JUNCTION        0.66          0.450        0.000
  YS02001583           JUNCTION        0.66          0.500        0.000
  YS02001586           JUNCTION        0.77          0.510        0.000
  YS02001590           JUNCTION        0.85          0.750        0.000
  YS02001593           JUNCTION        0.86          0.671        0.169
  YS02001596           JUNCTION        0.96          0.925        0.145
  YS02001600           JUNCTION        1.12          1.183        0.007
  YS02001601           JUNCTION        1.46          1.440        0.000
  YS02001602           JUNCTION        1.37          1.270        0.000
  YS02001605           JUNCTION        1.32          1.180        0.000
  YS02001607           JUNCTION        0.83          0.646        0.034
  YS02001610           JUNCTION        0.85          0.680        0.000
  YS02001613           JUNCTION        0.82          0.663        0.037
  YS02001616           JUNCTION        0.78          0.602        0.008
  YS02001619           JUNCTION        0.76          0.605        0.005
  YS02001622           JUNCTION        0.76          0.570        0.050
  YS02001625           JUNCTION        0.94          0.780        0.000
  YS02001629           JUNCTION        0.71          0.470        0.000
  YS02001633           JUNCTION        0.96          1.040        0.020
  YS02001641           JUNCTION        0.90          0.952        0.148
  YS02001644           JUNCTION        0.86          0.920        0.000
  YS02001647           JUNCTION        0.64          0.771        0.129
  YS02001649           JUNCTION        0.76          0.991        0.059
  YS02001652           JUNCTION        0.55          1.046        0.084
  YS02001655           JUNCTION        0.39          1.200        0.000
  YS02001658           JUNCTION        0.22          0.807        0.493
  YS02001661           JUNCTION        0.03          0.301        1.089
  YS02001748           JUNCTION        0.14          0.636        0.554
  YS02001751           JUNCTION        0.28          0.683        0.517
  YS02001754           JUNCTION        0.45          1.150        0.000
  YS02001757           JUNCTION        0.82          1.001        0.209
  YS02001759           JUNCTION        0.72          0.980        0.230
  YS02001762           JUNCTION        0.69          0.973        0.177
  YS02001765           JUNCTION        0.64          0.948        0.152
  YS02001767           JUNCTION        0.60          0.935        0.095
  YS02001770           JUNCTION        0.57          0.920        0.000
  YS02001774           JUNCTION        0.67          1.050        0.000
  YS02001779           JUNCTION        0.45          0.680        0.000
  YS02001783           JUNCTION        0.57          0.729        0.871
  YS02001784           JUNCTION        0.55          0.472        1.018
  YS02001786           JUNCTION        0.44          0.217        1.213
  YS02001882           JUNCTION        0.52          0.830        0.000
  YS02001884           JUNCTION        0.53          0.870        0.000
  YS02001887           JUNCTION        0.56          0.899        0.051
  YS02001890           JUNCTION        0.57          0.760        0.000
  YS02001895           JUNCTION        0.51          0.586        0.164
  YS02001898           JUNCTION        0.50          0.565        0.175
  YS02001901           JUNCTION        0.55          0.684        0.186
  YS02001904           JUNCTION        0.54          0.642        0.208
  YS02001907           JUNCTION        0.79          0.950        0.000
  YS02001910           JUNCTION        0.60          1.012        0.088
  YS02001915           JUNCTION        0.51          1.000        0.000
  YS02001918           JUNCTION        0.43          0.810        0.000
  YS02001920           JUNCTION        0.44          1.103        0.037
  YS02001923           JUNCTION        0.12          0.820        0.000
  YS02001926           JUNCTION        0.15          0.900        0.000
  YS02001929           JUNCTION        0.01          0.780        0.000
  YS02006553           JUNCTION        0.81          1.044        0.146
  YS02006556           JUNCTION        0.70          1.058        0.292
  YS02006558           JUNCTION        0.68          1.059        0.341
  YS02006561           JUNCTION        0.39          0.553        0.597
  YS02163301           JUNCTION        0.94          0.946        0.084
  YS02163601           JUNCTION        0.99          1.076        0.004
  YS02164001           JUNCTION        0.90          0.991        0.109
  
  
  *********************
  Node Flooding Summary
  *********************
  
  Flooding refers to all water that overflows a node, whether it ponds or not.
  --------------------------------------------------------------------------
                                                             Total   Maximum
                                 Maximum   Time of Max       Flood    Ponded
                        Hours       Rate    Occurrence      Volume     Depth
  Node                 Flooded       LPS   days hr:min    10^6 ltr    Meters
  --------------------------------------------------------------------------
  WS02006242              0.01      8.66      0  01:48       0.000     0.000
  WS02006248              0.01     22.69      0  02:02       0.000     0.000
  WS02006249              1.09    139.11      0  02:02       0.272     0.000
  WS02006252              0.01    245.63      0  00:00       0.000     0.000
  WS02006256              1.34    293.19      0  00:00       0.483     0.000
  YS02001580              0.01     71.96      0  01:53       0.000     0.000
  YS02001583              0.01     45.85      0  01:53       0.000     0.000
  YS02001586              0.52    435.53      0  02:04       0.398     0.000
  YS02001590              0.01      0.25      0  02:08       0.000     0.000
  YS02001601              0.70   1277.42      0  02:03       1.482     0.000
  YS02001602              0.58     62.02      0  02:23       0.118     0.000
  YS02001605              0.01      1.90      0  01:53       0.000     0.000
  YS02001610              0.51    738.57      0  02:04       0.733     0.000
  YS02001625              0.47   1346.54      0  02:04       1.170     0.000
  YS02001629              0.12    228.35      0  02:00       0.054     0.000
  YS02001644              0.19    886.34      0  02:03       0.376     0.000
  YS02001655              0.01    146.20      0  01:57       0.000     0.000
  YS02001754              0.01    292.03      0  01:57       0.000     0.000
  YS02001770              0.01    158.87      0  01:57       0.000     0.000
  YS02001774              0.01     71.01      0  01:57       0.000     0.000
  YS02001779              0.17    492.08      0  02:02       0.178     0.000
  YS02001882              0.01     11.81      0  01:55       0.000     0.000
  YS02001884              0.01      9.24      0  01:55       0.000     0.000
  YS02001890              0.18    340.86      0  02:01       0.114     0.000
  YS02001907              0.37   1968.32      0  02:02       1.383     0.000
  YS02001915              0.01     73.79      0  01:55       0.000     0.000
  YS02001918              0.01    161.29      0  01:57       0.002     0.000
  YS02001923              0.01    292.36      0  01:57       0.001     0.000
  YS02001926              0.01    449.85      0  01:56       0.001     0.000
  YS02001929              0.01    198.99      0  01:57       0.001     0.000
  
  
  **********************
  Storage Volume Summary
  **********************
  
  ------------------------------------------------------------------------------------------------
                         Average    Avg   Evap  Exfil     Maximum    Max    Time of Max    Maximum
                          Volume   Pcnt   Pcnt   Pcnt      Volume   Pcnt     Occurrence    Outflow
  Storage Unit           1000 m³   Full   Loss   Loss     1000 m³   Full    days hr:min        LPS
  ------------------------------------------------------------------------------------------------
  CC-storage               2.296   35.8    0.0    0.0       4.408   68.8       0  02:31    1783.53
  JK-storage               0.146   50.1    0.0    0.0       0.213   72.9       0  02:14    2300.00
  
  
  ***********************
  Outfall Loading Summary
  ***********************
  
  -----------------------------------------------------------
                         Flow       Avg       Max       Total
                         Freq      Flow      Flow      Volume
  Outfall Node           Pcnt       LPS       LPS    10^6 ltr
  -----------------------------------------------------------
  CC-1                  16.21    683.00    683.00       3.451
  CC-2                  15.07    683.00    683.00       3.130
  JK-1                   5.95   1000.00   1000.00       1.579
  JK-2                   4.05   1000.00   1000.00       1.185
  WSC                   99.97    287.47    558.50       6.628
  -----------------------------------------------------------
  System                28.25   3653.47   3924.13      15.973
  
  
  ********************
  Link Flow Summary
  ********************
  
  -----------------------------------------------------------------------------
                                 Maximum  Time of Max   Maximum    Max/    Max/
                                  |Flow|   Occurrence   |Veloc|    Full    Full
  Link                 Type          LPS  days hr:min     m/sec    Flow   Depth
  -----------------------------------------------------------------------------
  1                    CONDUIT    558.50     0  02:29      2.83    0.19    0.30
  WS02003060WS02003069 CONDUIT    557.14     0  02:24      1.65    0.22    0.34
  WS02003066WSF200     CONDUIT    540.61     0  02:23      2.86    0.09    0.22
  WS02003067WS02003066 CONDUIT    540.48     0  02:23      1.21    0.17    0.42
  WS02003069WS02003072 CONDUIT    556.79     0  02:27      1.37    0.27    0.39
  WS02003072WS02003073 CONDUIT    556.71     0  02:28      1.44    1.20    0.37
  WS02004401WS02004402 CONDUIT    546.29     0  02:22      0.98    0.66    0.89
  WS02004402WS02004403 CONDUIT    543.89     0  02:45      0.97    0.78    0.91
  WS02004403WS02004404 CONDUIT    562.73     0  02:30      0.92    0.41    0.96
  WS02004404WS02004405 CONDUIT    610.39     0  02:24      1.08    5.98    0.98
  WS02004405WS02004406 CONDUIT    551.05     0  02:21      0.99    1.09    0.97
  WS02004406WS02004407 CONDUIT    543.48     0  02:21      1.05    0.24    0.63
  WS02004407WS02004409 CONDUIT    542.24     0  02:21      1.51    0.19    0.48
  WS02004409WS02004410 CONDUIT    541.68     0  02:22      0.98    0.70    0.68
  WS02004410WS02004411 CONDUIT    541.23     0  02:22      0.94    0.74    0.69
  WS02004411WS02004412 CONDUIT    540.97     0  02:22      0.93    0.77    0.70
  WS02004412WS02004413 CONDUIT    540.98     0  02:23      0.82    0.36    0.78
  WS02004413WS02003067 CONDUIT    540.32     0  02:23      1.11    0.23    0.59
  WS02006109WS02006110 CONDUIT    562.33     0  03:06      1.12    1.08    1.00
  WS02006110WS02006113 CONDUIT    568.58     0  03:06      1.38    0.52    0.78
  WS02006111WS02006112 CONDUIT    543.06     0  03:00      1.81    0.26    0.67
  WS02006112WS02006115 CONDUIT    552.10     0  03:06      0.78    0.33    0.88
  WS02006113WS02006111 CONDUIT    560.48     0  01:51      2.46    0.67    0.46
  WS02006115WS02006116 CONDUIT    541.79     0  02:31      0.97    0.70    0.79
  WS02006116WS02004401 CONDUIT    542.17     0  02:27      0.98    0.75    0.87
  WS02006228WS02006109 CONDUIT    560.02     0  01:49      1.11    2.45    1.00
  WS02006229WS02006228 CONDUIT    559.81     0  01:49      1.14    1.85    1.00
  WS02006230WS02006229 CONDUIT    559.69     0  01:49      1.45   12.46    1.00
  WS02006231WS02006230 CONDUIT    576.07     0  02:25      1.55    8.74    1.00
  WS02006232WS02006231 CONDUIT    579.69     0  01:48      1.53    1.21    1.00
  WS02006234WS02006232 CONDUIT    576.71     0  01:48      1.50    1.17    1.00
  WS02006235WS02006234 CONDUIT    569.60     0  01:48      1.48    6.01    1.00
  WS02006238WS02006235 CONDUIT    422.02     0  03:01      1.52    0.94    1.00
  WS02006239WS02006238 CONDUIT    421.23     0  03:01      1.10    1.35    1.00
  WS02006240WS02006239 CONDUIT    421.03     0  03:01      1.24    1.32    1.00
  WS02006242WS02006240 CONDUIT    418.57     0  03:01      1.13    1.66    1.00
  WS02006243WS02006242 CONDUIT    418.52     0  03:01      1.40    0.89    1.00
  WS02006245WS02006243 CONDUIT    417.56     0  03:01      1.45    1.24    1.00
  WS02006247WS02006245 CONDUIT    417.19     0  03:01      1.43    3.31    1.00
  WS02006248WS02006247 CONDUIT    417.29     0  03:01      1.44    0.91    1.00
  WS02006249WS02006248 CONDUIT    424.85     0  01:58      1.40    2.33    1.00
  WS02006251WS02006249 CONDUIT    472.98     0  01:35      1.99    1.36    1.00
  WS02006252WS02006251 CONDUIT    412.45     0  02:02     24.61    1.51    1.00
  WS02006256WS02006235 CONDUIT    288.91     0  00:00      4.23    3.06    1.00
  WSF200WS02003060     CONDUIT    541.06     0  02:24      2.07    0.12    0.28
  YS02001580YS02001583 CONDUIT    112.13     0  01:53      0.64    0.43    1.00
  YS02001583YS02001586 CONDUIT    158.94     0  01:53      0.67    0.24    1.00
  YS02001586YS02001590 CONDUIT    318.05     0  02:08      1.25    0.56    1.00
  YS02001590YS02001593 CONDUIT    317.97     0  02:11      1.12    2.00    1.00
  YS02001593YS02001596 CONDUIT    317.98     0  02:17      1.75    0.50    1.00
  YS02001596YS02001600 CONDUIT    318.08     0  02:11      1.24    0.62    1.00
  YS02001600YS02001601 CONDUIT    317.91     0  02:11      1.12    0.55    1.00
  YS02001601YS02001602 CONDUIT    519.73     0  01:52      1.84    1.88    1.00
  YS02001602YS02001605 CONDUIT    519.07     0  01:52      1.84   10.98    1.00
  YS02001605YS02001607 CONDUIT    519.00     0  01:52      1.84    2.85    1.00
  YS02001607YS02001610 CONDUIT    518.84     0  01:52      0.66    0.49    1.00
  YS02001610YS02001613 CONDUIT    521.17     0  01:52      0.66    0.60    1.00
  YS02001613YS02001616 CONDUIT    519.46     0  01:52      0.67    0.45    1.00
  YS02001616YS02001619 CONDUIT    507.99     0  01:53      0.67    0.88    1.00
  YS02001619YS02001622 CONDUIT    950.81     0  02:01      1.21    1.40    1.00
  YS02001622YS02001625 CONDUIT    950.85     0  02:01      1.21    0.51    1.00
  YS02001625YS02001629 CONDUIT    929.93     0  01:56      1.19    0.44    1.00
  YS02001629YS02163301 CONDUIT    929.73     0  01:56      1.18    1.14    1.00
  YS02001633YS02163601 CONDUIT   1403.53     0  01:56      1.79    1.47    1.00
  YS02001641YS02001644 CONDUIT   1403.18     0  01:56      1.79    4.54    1.00
  YS02001644YS02001647 CONDUIT   1832.74     0  01:56      2.34    1.08    1.00
  YS02001647YS02001649 CONDUIT   1855.30     0  01:56      2.38    0.98    1.00
  YS02001649YS02001757 CONDUIT   2116.89     0  01:56      2.70    1.28    1.00
  YS02001652YS02001649 CONDUIT    892.67     0  02:02      1.14    0.44    1.00
  YS02001655YS02001652 CONDUIT    892.54     0  02:02      1.35    0.43    1.00
  YS02001658YS02001655 CONDUIT    891.68     0  02:02      1.92    0.38    1.00
  YS02001661YS02001658 CONDUIT    891.70     0  02:02      2.35    0.35    1.00
  YS02001664YS02001661 CONDUIT    891.32     0  02:02      2.37    0.28    0.80
  YS02001745YS02001748 CONDUIT    595.10     0  02:01      2.23    0.23    0.91
  YS02001748YS02001751 CONDUIT    598.63     0  02:01      1.76    0.30    1.00
  YS02001751YS02001754 CONDUIT    598.78     0  02:01      1.45    0.29    1.00
  YS02001754YS02001757 CONDUIT    599.09     0  02:01      0.76    0.24    1.00
  YS02001757CaochengTiaoxuchi CONDUIT   3535.87     0  02:01      4.60    1.53    1.00
  YS02001759YS02001757 CONDUIT   1437.18     0  02:01      1.83    1.02    1.00
  YS02001762YS02001759 CONDUIT    789.54     0  01:58      1.01    0.91    1.00
  YS02001765YS02001762 CONDUIT    792.77     0  01:58      1.01    0.74    1.00
  YS02001767YS02001765 CONDUIT    795.66     0  01:58      1.01    1.00    1.00
  YS02001770YS02001767 CONDUIT    796.75     0  01:58      1.01    3.16    1.00
  YS02001774YS02001770 CONDUIT    492.12     0  02:02      0.63    0.31    1.00
  YS02001779YS02001774 CONDUIT    492.14     0  02:02      0.63    0.25    1.00
  YS02001783YS02001784 CONDUIT   1165.83     0  02:00      2.32    1.61    1.00
  YS02001784YS02001785 CONDUIT   1166.82     0  02:00      2.32    2.72    1.00
  YS02001786YS02001788 CONDUIT   1166.93     0  02:01      2.49    2.25    0.89
  YS02001788YS02001790 CONDUIT   1176.50     0  02:00      2.72    0.87    0.84
  YS02001790YS02001791 CONDUIT   1288.51     0  02:00      3.43    1.40    0.70
  YS02001791YS02001793 CONDUIT   1261.80     0  01:59      6.79    0.54    0.45
  YS02001793JiankangQianchi CONDUIT   1263.62     0  02:06      2.52    0.10    0.65
  YS02001882YS02001884 CONDUIT     44.14     0  01:54      0.13    0.05    1.00
  YS02001884YS02001887 CONDUIT     73.74     0  01:54      0.09    0.10    1.00
  YS02001887YS02001890 CONDUIT    856.23     0  02:01      1.09    1.47    1.00
  YS02001890YS02001895 CONDUIT    517.46     0  02:05      0.66    0.24    1.00
  YS02001895YS02001898 CONDUIT    517.48     0  02:03      0.66    0.90    1.00
  YS02001898YS02001901 CONDUIT    517.52     0  02:05      0.66    0.33    1.00
  YS02001901YS02001904 CONDUIT    517.73     0  02:05      0.66    0.80    1.00
  YS02001904YS02001907 CONDUIT    517.32     0  02:05      0.66    0.18    1.00
  YS02001907YS02006553 CONDUIT    798.26     0  02:19      0.89    0.94    1.00
  YS02001910YS02001907 CONDUIT   1482.82     0  02:02      1.89    0.84    1.00
  YS02001915YS02001910 CONDUIT   1483.04     0  02:03      1.89    0.74    1.00
  YS02001918YS02001915 CONDUIT    496.91     0  02:02      0.63    0.27    1.00
  YS02001920YS02001918 CONDUIT    497.23     0  02:02      0.65    0.48    1.00
  YS02001923YS02001920 CONDUIT    494.26     0  02:02      0.69    0.22    1.00
  YS02001926YS02001923 CONDUIT    494.49     0  02:02      0.95    0.71    1.00
  YS02001929YS02001926 CONDUIT    494.03     0  02:02      1.13    0.23    1.00
  YS02006553YS02006556 CONDUIT    798.60     0  02:19      1.02    0.68    1.00
  YS02006556YS02006558 CONDUIT    798.93     0  02:19      1.02    0.63    1.00
  YS02006558YS02006561 CONDUIT   1173.47     0  01:56      4.15    2.59    1.00
  YS02006561YS02001783 CONDUIT   1165.79     0  02:00      2.32    0.60    1.00
  YS02163301YS02001633 CONDUIT    929.76     0  01:56      1.18    0.87    1.00
  YS02163601YS02164001 CONDUIT   1403.33     0  01:56      1.79    1.24    1.00
  YS02164001YS02001641 CONDUIT   1403.53     0  01:56      1.79    1.92    1.00
  CC-R1                PUMP       683.00     0  00:00              1.00
  CC-R2                PUMP       683.00     0  00:00              1.00
  CC-S1                PUMP       200.00     0  00:00              1.00
  CC-S2                PUMP       200.00     0  00:00              1.00
  JK-R1                PUMP      1000.00     0  00:00              1.00
  JK-R2                PUMP      1000.00     0  00:00              1.00
  JK-S                 PUMP       300.00     0  00:00              1.00
  
  
  ***************************
  Flow Classification Summary
  ***************************
  
  -------------------------------------------------------------------------------------
                      Adjusted    ---------- Fraction of Time in Flow Class ---------- 
                       /Actual         Up    Down  Sub   Sup   Up    Down  Norm  Inlet 
  Conduit               Length    Dry  Dry   Dry   Crit  Crit  Crit  Crit  Ltd   Ctrl  
  -------------------------------------------------------------------------------------
  1                       1.00   0.00  0.00  0.00  0.00  1.00  0.00  0.00  0.44  0.00
  WS02003060WS02003069    1.00   0.00  0.00  0.00  0.97  0.03  0.00  0.00  0.62  0.00
  WS02003066WSF200        1.00   0.13  0.00  0.00  0.00  0.87  0.00  0.00  0.73  0.00
  WS02003067WS02003066    1.00   0.10  0.02  0.00  0.88  0.00  0.00  0.00  0.00  0.00
  WS02003069WS02003072    1.00   0.00  0.00  0.00  0.99  0.01  0.00  0.00  0.70  0.00
  WS02003072WS02003073    1.00   0.00  0.00  0.00  0.00  0.00  0.00  1.00  0.00  0.00
  WS02004401WS02004402    1.00   0.02  0.00  0.00  0.98  0.00  0.00  0.00  0.00  0.00
  WS02004402WS02004403    1.00   0.02  0.00  0.00  0.97  0.00  0.00  0.00  0.00  0.00
  WS02004403WS02004404    1.00   0.00  0.03  0.00  0.97  0.00  0.00  0.00  0.00  0.00
  WS02004404WS02004405    1.00   0.00  0.00  0.00  1.00  0.00  0.00  0.00  0.01  0.00
  WS02004405WS02004406    1.00   0.00  0.00  0.00  1.00  0.00  0.00  0.00  0.00  0.00
  WS02004406WS02004407    1.00   0.00  0.05  0.00  0.95  0.00  0.00  0.00  0.00  0.00
  WS02004407WS02004409    1.00   0.05  0.00  0.00  0.94  0.01  0.00  0.00  0.95  0.00
  WS02004409WS02004410    1.00   0.05  0.00  0.00  0.95  0.00  0.00  0.00  0.03  0.00
  WS02004410WS02004411    1.00   0.05  0.00  0.00  0.95  0.00  0.00  0.00  0.01  0.00
  WS02004411WS02004412    1.00   0.05  0.00  0.00  0.95  0.00  0.00  0.00  0.00  0.00
  WS02004412WS02004413    1.00   0.05  0.00  0.00  0.94  0.00  0.00  0.00  0.01  0.00
  WS02004413WS02003067    1.00   0.06  0.04  0.00  0.00  0.00  0.90  0.00  0.00  0.00
  WS02006109WS02006110    1.00   0.00  0.01  0.00  0.98  0.00  0.01  0.00  0.00  0.00
  WS02006110WS02006113    1.00   0.01  0.01  0.00  0.98  0.00  0.00  0.00  0.00  0.00
  WS02006111WS02006112    1.00   0.02  0.00  0.00  0.98  0.00  0.00  0.00  0.98  0.00
  WS02006112WS02006115    1.00   0.02  0.00  0.00  0.97  0.00  0.00  0.00  0.00  0.00
  WS02006113WS02006111    1.00   0.02  0.00  0.00  0.00  0.98  0.00  0.00  0.16  0.00
  WS02006115WS02006116    1.00   0.02  0.00  0.00  0.97  0.00  0.00  0.01  0.00  0.00
  WS02006116WS02004401    1.00   0.02  0.00  0.00  0.98  0.00  0.00  0.00  0.00  0.00
  WS02006228WS02006109    1.00   0.00  0.00  0.00  1.00  0.00  0.00  0.00  0.00  0.00
  WS02006229WS02006228    1.00   0.00  0.00  0.00  0.99  0.00  0.00  0.01  0.00  0.00
  WS02006230WS02006229    1.00   0.00  0.00  0.00  0.99  0.00  0.00  0.01  0.00  0.00
  WS02006231WS02006230    1.00   0.00  0.00  0.00  0.31  0.00  0.69  0.00  0.00  0.00
  WS02006232WS02006231    1.00   0.00  0.00  0.00  0.99  0.00  0.01  0.00  0.00  0.00
  WS02006234WS02006232    1.00   0.00  0.00  0.00  1.00  0.00  0.00  0.00  0.11  0.00
  WS02006235WS02006234    1.00   0.00  0.00  0.00  0.80  0.00  0.20  0.00  0.00  0.00
  WS02006238WS02006235    1.00   0.00  0.00  0.00  1.00  0.00  0.00  0.00  0.00  0.00
  WS02006239WS02006238    1.00   0.00  0.00  0.00  1.00  0.00  0.00  0.00  0.22  0.00
  WS02006240WS02006239    1.00   0.00  0.00  0.00  0.67  0.00  0.00  0.33  0.01  0.00
  WS02006242WS02006240    1.00   0.00  0.00  0.00  0.99  0.00  0.01  0.00  0.00  0.00
  WS02006243WS02006242    1.00   0.00  0.00  0.00  0.99  0.00  0.00  0.01  0.38  0.00
  WS02006245WS02006243    1.00   0.00  0.00  0.00  0.81  0.00  0.00  0.18  0.01  0.00
  WS02006247WS02006245    1.00   0.00  0.00  0.00  0.98  0.00  0.00  0.02  0.00  0.00
  WS02006248WS02006247    1.00   0.00  0.00  0.00  0.99  0.00  0.00  0.01  0.25  0.00
  WS02006249WS02006248    1.00   0.00  0.00  0.00  0.62  0.00  0.38  0.00  0.00  0.00
  WS02006251WS02006249    1.00   0.00  0.00  0.00  1.00  0.00  0.00  0.00  0.38  0.00
  WS02006252WS02006251    1.00   0.00  0.39  0.00  0.14  0.00  0.48  0.00  0.00  0.00
  WS02006256WS02006235    1.00   0.00  0.00  0.00  1.00  0.00  0.00  0.00  0.00  0.00
  WSF200WS02003060        1.00   0.00  0.13  0.00  0.25  0.63  0.00  0.00  0.34  0.00
  YS02001580YS02001583    1.00   0.23  0.57  0.00  0.20  0.00  0.00  0.00  0.66  0.00
  YS02001583YS02001586    1.00   0.42  0.33  0.00  0.25  0.00  0.00  0.00  0.66  0.00
  YS02001586YS02001590    1.00   0.13  0.00  0.00  0.43  0.04  0.00  0.40  0.36  0.00
  YS02001590YS02001593    1.00   0.13  0.01  0.00  0.12  0.00  0.74  0.00  0.00  0.00
  YS02001593YS02001596    1.00   0.13  0.00  0.00  0.14  0.01  0.00  0.72  0.02  0.00
  YS02001596YS02001600    1.00   0.14  0.00  0.00  0.20  0.01  0.00  0.65  0.04  0.00
  YS02001600YS02001601    1.00   0.13  0.01  0.00  0.86  0.00  0.00  0.00  0.60  0.00
  YS02001601YS02001602    1.00   0.13  0.01  0.00  0.87  0.00  0.00  0.00  0.00  0.00
  YS02001602YS02001605    1.00   0.14  0.00  0.00  0.86  0.00  0.00  0.00  0.00  0.00
  YS02001605YS02001607    1.00   0.14  0.00  0.00  0.86  0.00  0.00  0.00  0.00  0.00
  YS02001607YS02001610    1.00   0.13  0.01  0.00  0.86  0.00  0.00  0.00  0.01  0.00
  YS02001610YS02001613    1.00   0.13  0.00  0.00  0.87  0.00  0.00  0.00  0.00  0.00
  YS02001613YS02001616    1.00   0.13  0.00  0.00  0.87  0.00  0.00  0.00  0.00  0.00
  YS02001616YS02001619    1.00   0.13  0.00  0.00  0.87  0.00  0.00  0.00  0.00  0.00
  YS02001619YS02001622    1.00   0.13  0.00  0.00  0.87  0.00  0.00  0.00  0.29  0.00
  YS02001622YS02001625    1.00   0.13  0.00  0.00  0.87  0.00  0.00  0.00  0.04  0.00
  YS02001625YS02001629    1.00   0.13  0.05  0.00  0.17  0.00  0.66  0.00  0.00  0.00
  YS02001629YS02163301    1.00   0.15  0.01  0.00  0.84  0.00  0.00  0.00  0.00  0.00
  YS02001633YS02163601    1.00   0.00  0.01  0.00  0.99  0.00  0.00  0.00  0.15  0.00
  YS02001641YS02001644    1.00   0.00  0.01  0.00  0.99  0.00  0.00  0.00  0.00  0.00
  YS02001644YS02001647    1.00   0.00  0.17  0.00  0.83  0.00  0.00  0.00  0.00  0.00
  YS02001647YS02001649    1.00   0.00  0.17  0.00  0.56  0.27  0.00  0.00  0.55  0.00
  YS02001649YS02001757    1.00   0.00  0.00  0.00  0.88  0.12  0.00  0.00  0.42  0.00
  YS02001652YS02001649    1.00   0.00  0.00  0.00  0.97  0.03  0.00  0.00  0.72  0.00
  YS02001655YS02001652    1.00   0.00  0.00  0.00  0.20  0.01  0.00  0.79  0.06  0.00
  YS02001658YS02001655    1.00   0.00  0.14  0.00  0.66  0.20  0.00  0.00  0.68  0.00
  YS02001661YS02001658    1.00   0.14  0.00  0.00  0.50  0.36  0.00  0.00  0.69  0.00
  YS02001664YS02001661    1.00   0.13  0.00  0.00  0.76  0.11  0.00  0.00  0.85  0.00
  YS02001745YS02001748    1.00   0.00  0.00  0.00  0.09  0.01  0.00  0.90  0.05  0.00
  YS02001748YS02001751    1.00   0.00  0.00  0.00  0.82  0.18  0.00  0.00  0.77  0.00
  YS02001751YS02001754    1.00   0.00  0.00  0.00  0.15  0.01  0.00  0.84  0.02  0.00
  YS02001754YS02001757    1.00   0.00  0.00  0.00  1.00  0.00  0.00  0.00  0.78  0.00
  YS02001757CaochengTiaoxuchi    1.00   0.00  0.00  0.00  0.96  0.04  0.00  0.00  0.60  0.00
  YS02001759YS02001757    1.00   0.00  0.00  0.00  1.00  0.00  0.00  0.00  0.50  0.00
  YS02001762YS02001759    1.00   0.00  0.00  0.00  1.00  0.00  0.00  0.00  0.05  0.00
  YS02001765YS02001762    1.00   0.00  0.00  0.00  1.00  0.00  0.00  0.00  0.65  0.00
  YS02001767YS02001765    1.00   0.00  0.00  0.00  1.00  0.00  0.00  0.00  0.01  0.00
  YS02001770YS02001767    1.00   0.00  0.00  0.00  1.00  0.00  0.00  0.00  0.00  0.00
  YS02001774YS02001770    1.00   0.00  0.13  0.00  0.70  0.00  0.17  0.00  0.03  0.00
  YS02001779YS02001774    1.00   0.00  0.00  0.00  1.00  0.00  0.00  0.00  0.78  0.00
  YS02001783YS02001784    1.00   0.00  0.18  0.00  0.82  0.00  0.00  0.00  0.55  0.00
  YS02001784YS02001785    1.00   0.00  0.00  0.00  1.00  0.00  0.00  0.00  0.17  0.00
  YS02001786YS02001788    1.00   0.00  0.00  0.00  0.80  0.20  0.00  0.00  0.00  0.00
  YS02001788YS02001790    1.00   0.00  0.00  0.00  0.21  0.79  0.00  0.00  0.80  0.00
  YS02001790YS02001791    1.00   0.00  0.00  0.00  0.01  0.99  0.00  0.00  0.16  0.00
  YS02001791YS02001793    1.00   0.00  0.00  0.00  0.00  1.00  0.00  0.00  0.01  0.00
  YS02001793JiankangQianchi    1.00   0.00  0.00  0.00  0.96  0.04  0.00  0.00  0.97  0.00
  YS02001882YS02001884    1.00   0.15  0.01  0.00  0.84  0.00  0.00  0.00  0.00  0.00
  YS02001884YS02001887    1.00   0.06  0.05  0.00  0.89  0.00  0.00  0.00  0.00  0.00
  YS02001887YS02001890    1.00   0.00  0.00  0.00  0.97  0.00  0.03  0.00  0.00  0.00
  YS02001890YS02001895    1.00   0.00  0.16  0.00  0.84  0.00  0.00  0.00  0.00  0.00
  YS02001895YS02001898    1.00   0.16  0.00  0.00  0.82  0.00  0.02  0.00  0.00  0.00
  YS02001898YS02001901    1.00   0.17  0.00  0.00  0.83  0.00  0.00  0.00  0.01  0.00
  YS02001901YS02001904    1.00   0.17  0.00  0.00  0.83  0.00  0.00  0.00  0.00  0.00
  YS02001904YS02001907    1.00   0.00  0.16  0.00  0.83  0.00  0.00  0.00  0.00  0.00
  YS02001907YS02006553    1.00   0.00  0.02  0.00  0.98  0.00  0.00  0.00  0.00  0.00
  YS02001910YS02001907    1.00   0.00  0.00  0.00  0.97  0.00  0.00  0.03  0.12  0.00
  YS02001915YS02001910    1.00   0.00  0.00  0.00  0.97  0.03  0.00  0.00  0.16  0.00
  YS02001918YS02001915    1.00   0.00  0.01  0.00  0.98  0.02  0.00  0.00  0.75  0.00
  YS02001920YS02001918    1.00   0.00  0.01  0.00  0.99  0.00  0.00  0.00  0.00  0.00
  YS02001923YS02001920    1.00   0.00  0.00  0.00  1.00  0.00  0.00  0.00  0.92  0.00
  YS02001926YS02001923    1.00   0.00  0.07  0.00  0.06  0.00  0.86  0.00  0.00  0.00
  YS02001929YS02001926    1.00   0.00  0.13  0.00  0.87  0.00  0.00  0.00  0.82  0.00
  YS02006553YS02006556    1.00   0.01  0.00  0.00  0.99  0.00  0.00  0.00  0.03  0.00
  YS02006556YS02006558    1.00   0.00  0.00  0.00  1.00  0.00  0.00  0.00  0.00  0.00
  YS02006558YS02006561    1.00   0.18  0.00  0.00  0.06  0.76  0.00  0.00  0.18  0.00
  YS02006561YS02001783    1.00   0.18  0.00  0.00  0.09  0.73  0.00  0.00  0.68  0.00
  YS02163301YS02001633    1.00   0.00  0.15  0.00  0.85  0.00  0.00  0.00  0.00  0.00
  YS02163601YS02164001    1.00   0.00  0.08  0.00  0.92  0.00  0.00  0.00  0.00  0.00
  YS02164001YS02001641    1.00   0.01  0.07  0.00  0.92  0.00  0.00  0.00  0.06  0.00
  
  
  *************************
  Conduit Surcharge Summary
  *************************
  
  ----------------------------------------------------------------------------
                                                           Hours        Hours 
                         --------- Hours Full --------   Above Full   Capacity
  Conduit                Both Ends  Upstream  Dnstream   Normal Flow   Limited
  ----------------------------------------------------------------------------
  WS02003072WS02003073        0.01      0.01      0.01      1.42         0.01
  WS02004403WS02004404        0.01      0.01      0.05      0.01         0.01
  WS02004404WS02004405        0.01      0.05      0.01      4.62         0.01
  WS02004405WS02004406        0.01      0.01      0.01      0.92         0.01
  WS02006109WS02006110        0.99      0.99      2.27      1.06         0.01
  WS02006110WS02006113        0.01      0.01      2.25      0.01         0.01
  WS02006111WS02006112        0.01      0.01      2.92      0.01         0.01
  WS02006112WS02006115        0.01      0.01      1.18      0.01         0.01
  WS02006228WS02006109        2.22      2.27      2.22      3.23         2.22
  WS02006229WS02006228        2.21      2.23      2.21      2.65         2.21
  WS02006230WS02006229        2.35      2.57      2.35      4.99         2.35
  WS02006231WS02006230        0.98      0.98      1.14      4.82         0.01
  WS02006232WS02006231        1.10      1.10      2.28      1.13         0.01
  WS02006234WS02006232        2.18      2.18      2.28      1.11         1.08
  WS02006235WS02006234        1.37      1.37      2.21      4.72         0.01
  WS02006238WS02006235        2.23      2.23      2.29      0.01         0.01
  WS02006239WS02006238        2.25      2.28      2.25      2.44         1.97
  WS02006240WS02006239        2.23      2.24      2.23      2.43         1.85
  WS02006242WS02006240        2.24      2.24      2.37      2.66         0.01
  WS02006243WS02006242        2.24      2.24      2.31      0.01         0.02
  WS02006245WS02006243        2.19      2.19      2.23      1.45         1.33
  WS02006247WS02006245        2.18      2.21      2.18      4.62         2.17
  WS02006248WS02006247        2.17      2.17      2.20      0.01         0.02
  WS02006249WS02006248        2.15      2.15      2.18      4.59         0.01
  WS02006251WS02006249        2.17      2.19      2.18      2.54         2.11
  WS02006252WS02006251        2.61      2.61      2.62      2.61         0.01
  WS02006256WS02006235        4.74      4.77      6.40      1.35         0.01
  YS02001580YS02001583        0.66      0.66      0.70      0.01         0.01
  YS02001583YS02001586        0.66      0.66      0.77      0.01         0.01
  YS02001586YS02001590        0.78      0.78      0.85      0.01         0.01
  YS02001590YS02001593        0.86      0.86      0.87      0.90         0.01
  YS02001593YS02001596        0.86      0.86      0.96      0.01         0.01
  YS02001596YS02001600        1.01      1.01      1.12      0.01         0.01
  YS02001600YS02001601        1.18      1.18      1.46      0.01         0.01
  YS02001601YS02001602        1.37      1.37      1.50      1.13         0.01
  YS02001602YS02001605        1.32      1.32      1.37      2.27         0.01
  YS02001605YS02001607        1.27      1.32      1.27      1.43         1.27
  YS02001607YS02001610        0.83      0.83      0.85      0.01         0.01
  YS02001610YS02001613        0.82      0.82      0.85      0.01         0.01
  YS02001613YS02001616        0.78      0.78      0.82      0.01         0.01
  YS02001616YS02001619        0.76      0.76      0.78      0.01         0.02
  YS02001619YS02001622        0.76      0.76      0.76      0.88         0.73
  YS02001622YS02001625        0.76      0.76      0.94      0.01         0.01
  YS02001625YS02001629        0.71      0.71      0.94      0.01         0.01
  YS02001629YS02163301        0.93      0.93      0.94      0.24         0.22
  YS02001633YS02163601        0.96      0.96      0.99      0.41         0.39
  YS02001641YS02001644        0.86      0.90      0.86      1.53         0.85
  YS02001644YS02001647        0.64      0.64      0.86      0.04         0.01
  YS02001647YS02001649        0.64      0.64      0.76      0.01         0.01
  YS02001649YS02001757        0.75      0.76      0.82      0.09         0.09
  YS02001652YS02001649        0.58      0.58      0.76      0.01         0.01
  YS02001655YS02001652        0.39      0.39      0.55      0.01         0.01
  YS02001658YS02001655        0.22      0.22      0.39      0.01         0.01
  YS02001661YS02001658        0.03      0.03      0.22      0.01         0.01
  YS02001664YS02001661        0.01      0.01      0.09      0.01         0.01
  YS02001745YS02001748        0.01      0.01      0.14      0.01         0.01
  YS02001748YS02001751        0.19      0.19      0.28      0.01         0.01
  YS02001751YS02001754        0.28      0.28      0.45      0.01         0.01
  YS02001754YS02001757        0.50      0.50      0.82      0.01         0.01
  YS02001757CaochengTiaoxuchi        0.73      0.82      1.94      0.42         0.29
  YS02001759YS02001757        0.72      0.72      0.82      0.04         0.05
  YS02001762YS02001759        0.69      0.69      0.72      0.01         0.02
  YS02001765YS02001762        0.64      0.64      0.69      0.01         0.01
  YS02001767YS02001765        0.60      0.60      0.64      0.01         0.03
  YS02001770YS02001767        0.60      0.60      0.60      0.58         0.45
  YS02001774YS02001770        0.57      0.57      0.67      0.01         0.01
  YS02001779YS02001774        0.45      0.45      0.67      0.01         0.01
  YS02001783YS02001784        0.55      0.57      0.55      0.72         0.55
  YS02001784YS02001785        0.44      0.55      0.44      0.96         0.44
  YS02001786YS02001788        0.01      0.44      0.01      0.82         0.01
  YS02001790YS02001791        0.01      0.01      0.01      0.53         0.01
  YS02001793JiankangQianchi        0.01      0.01      7.65      0.01         0.01
  YS02001882YS02001884        0.52      0.52      0.53      0.01         0.01
  YS02001884YS02001887        0.55      0.55      0.56      0.01         0.01
  YS02001887YS02001890        0.57      0.57      0.59      0.13         0.01
  YS02001890YS02001895        0.51      0.51      0.60      0.01         0.01
  YS02001895YS02001898        0.50      0.50      0.51      0.01         0.01
  YS02001898YS02001901        0.51      0.51      0.55      0.01         0.01
  YS02001901YS02001904        0.54      0.54      0.55      0.01         0.01
  YS02001904YS02001907        0.54      0.54      0.81      0.01         0.01
  YS02001907YS02006553        0.97      0.97      1.04      0.01         0.01
  YS02001910YS02001907        0.60      0.60      0.79      0.01         0.01
  YS02001915YS02001910        0.51      0.51      0.60      0.01         0.01
  YS02001918YS02001915        0.43      0.43      0.51      0.01         0.01
  YS02001920YS02001918        0.43      0.43      0.44      0.01         0.01
  YS02001923YS02001920        0.38      0.38      0.44      0.01         0.01
  YS02001926YS02001923        0.12      0.12      0.15      0.01         0.01
  YS02001929YS02001926        0.01      0.01      0.15      0.01         0.01
  YS02006553YS02006556        0.70      0.70      0.81      0.01         0.01
  YS02006556YS02006558        0.74      0.74      0.82      0.01         0.01
  YS02006558YS02006561        0.46      0.68      0.46      0.91         0.46
  YS02006561YS02001783        0.39      0.39      0.57      0.01         0.01
  YS02163301YS02001633        0.94      0.94      0.98      0.01         0.01
  YS02163601YS02164001        0.90      0.90      0.99      0.08         0.01
  YS02164001YS02001641        0.90      0.90      0.90      0.76         0.66
  
  
  ***************
  Pumping Summary
  ***************
  
  ---------------------------------------------------------------------------------------------------------
                                                  Min       Avg       Max     Total     Power    % Time Off
                        Percent   Number of      Flow      Flow      Flow    Volume     Usage    Pump Curve
  Pump                 Utilized   Start-Ups       LPS       LPS       LPS  10^6 ltr     Kw-hr    Low   High
  ---------------------------------------------------------------------------------------------------------
  CC-R1                   17.55           6      0.00    683.00    683.00     3.452     63.52    0.0   22.8
  CC-R2                   15.91           4      0.00    683.00    683.00     3.129     57.71    0.0   20.9
  CC-S1                   51.93           8      0.00    200.00    200.00     2.991     18.33    0.0    0.0
  CC-S2                   38.93          13      0.00    200.00    200.00     2.242     13.91    0.0    0.0
  JK-R1                    5.48          10      0.00   1000.00   1000.00     1.579     15.96    0.0    0.0
  JK-R2                    4.11          14      0.00   1000.00   1000.00     1.184      9.62    0.0    0.0
  JK-S                    16.79          10      0.00    300.00    300.00     1.450     23.77    0.0    0.0
  

  Analysis begun on:  Wed Apr 23 23:58:38 2025
  Analysis ended on:  Wed Apr 23 23:58:40 2025
  Total elapsed time: 00:00:02