
  EPA STORM WATER MANAGEMENT MODEL - VERSION 5.2 (Build 5.2.4)
  PYSWMM TOOLKIT API - VERSION v1.0 (2023-11-27)
  ------------------------------------------------------------

  WARNING 04: minimum elevation drop used for Conduit WS02004404WS02004405
  WARNING 03: negative offset ignored for Link YS02001904YS02001907
  
  ****************
  Analysis Options
  ****************
  Flow Units ............... LPS
  Process Models:
    Rainfall/Runoff ........ YES
    RDII ................... NO
    Snowmelt ............... NO
    Groundwater ............ NO
    Flow Routing ........... YES
    Ponding Allowed ........ NO
    Water Quality .......... NO
  Infiltration Method ...... HORTON
  Flow Routing Method ...... DYNWAVE
  Surcharge Method ......... EXTRAN
  Starting Date ............ 08/28/2015 08:00:00
  Ending Date .............. 08/28/2015 16:00:00
  Antecedent Dry Days ...... 8.0
  Report Time Step ......... 00:01:00
  Wet Time Step ............ 00:01:00
  Dry Time Step ............ 00:01:00
  Routing Time Step ........ 30.00 sec
  Variable Time Step ....... YES
  Maximum Trials ........... 8
  Number of Threads ........ 4
  Head Tolerance ........... 0.001500 m
  
  
  **************************        Volume         Depth
  Runoff Quantity Continuity     hectare-m            mm
  **************************     ---------       -------
  Total Precipitation ......         2.718        81.936
  Evaporation Loss .........         0.000         0.000
  Infiltration Loss ........         0.104         3.146
  Surface Runoff ...........         2.581        77.813
  Final Storage ............         0.033         0.997
  Continuity Error (%) .....        -0.024
  
  
  **************************        Volume        Volume
  Flow Routing Continuity        hectare-m      10^6 ltr
  **************************     ---------     ---------
  Dry Weather Inflow .......         0.025         0.251
  Wet Weather Inflow .......         2.581        25.809
  Groundwater Inflow .......         0.000         0.000
  RDII Inflow ..............         0.000         0.000
  External Inflow ..........         0.083         0.834
  External Outflow .........         1.713        17.128
  Flooding Loss ............         1.039        10.393
  Evaporation Loss .........         0.000         0.000
  Exfiltration Loss ........         0.000         0.000
  Initial Stored Volume ....         0.243         2.431
  Final Stored Volume ......         0.186         1.860
  Continuity Error (%) .....        -0.193
  
  
  *************************
  Highest Continuity Errors
  *************************
  Node YS02001884 (5.19%)
  Node YS02001583 (-3.36%)
  
  
  ***************************
  Time-Step Critical Elements
  ***************************
  Link WS02006252WS02006251 (56.59%)
  Link WS02004404WS02004405 (11.34%)
  Link WS02006238WS02006235 (10.54%)
  Link WS02006235WS02006234 (6.40%)
  Link YS02001791YS02001793 (5.96%)
  
  
  ********************************
  Highest Flow Instability Indexes
  ********************************
  Link WS02006113WS02006111 (55)
  Link WS02006111WS02006112 (22)
  Link WS02004404WS02004405 (20)
  Link WS02004403WS02004404 (18)
  Link WS02004405WS02004406 (17)
  
  
  *********************************
  Most Frequent Nonconverging Nodes
  *********************************
  Node CC-1 (8.62%)
  Node CC-2 (8.62%)
  Node JK-1 (8.62%)
  Node JK-2 (8.62%)
  Node WSC (8.62%)
  
  
  *************************
  Routing Time Step Summary
  *************************
  Minimum Time Step           :     0.01 sec
  Average Time Step           :     1.67 sec
  Maximum Time Step           :     7.04 sec
  % of Time in Steady State   :     0.00
  Average Iterations per Step :     2.85
  % of Steps Not Converging   :     8.62
  Time Step Frequencies       :
     30.000 - 13.228 sec      :     0.00 %
     13.228 -  5.833 sec      :     6.80 %
      5.833 -  2.572 sec      :    13.54 %
      2.572 -  1.134 sec      :    19.32 %
      1.134 -  0.500 sec      :    60.34 %
  
  
  ***************************
  Subcatchment Runoff Summary
  ***************************
  
  ------------------------------------------------------------------------------------------------------------------------------
                            Total      Total      Total      Total     Imperv       Perv      Total       Total     Peak  Runoff
                           Precip      Runon       Evap      Infil     Runoff     Runoff     Runoff      Runoff   Runoff   Coeff
  Subcatchment                 mm         mm         mm         mm         mm         mm         mm    10^6 ltr      LPS
  ------------------------------------------------------------------------------------------------------------------------------
  sub60                     81.94       0.00       0.00       1.85      70.91       7.98      78.89        1.04   771.42   0.963
  sub61                     81.94       0.00       0.00       2.70      66.88      11.24      78.12        1.43  1073.73   0.953
  sub62                     81.94       0.00       0.00       1.24      74.10       5.32      79.42        2.18  1520.17   0.969
  sub63                     81.94       0.00       0.00       5.03      57.21      18.74      75.95        1.72  1237.58   0.927
  sub64                     81.94       0.00       0.00       2.53      68.44       9.76      78.20        1.88  1256.42   0.954
  sub65                     81.94       0.00       0.00       2.19      70.03       8.46      78.50        2.16  1405.43   0.958
  sub66                     81.94       0.00       0.00       6.30      57.10      17.46      74.56        3.48  1921.28   0.910
  sub67                     81.94       0.00       0.00       1.18      74.15       5.37      79.52        1.48  1141.56   0.971
  sub68                     81.94       0.00       0.00       2.24      69.28       9.24      78.52        2.16  1558.53   0.958
  sub69                     81.94       0.00       0.00       2.03      69.54      10.26      79.80        2.95  1866.82   0.974
  sub70                     81.94       0.00       0.00       6.88      53.91      20.98      74.89        2.16  1080.85   0.914
  sub71                     81.94       0.00       0.00       1.27      74.06       5.28      79.34        2.07  1353.04   0.968
  sub72                     81.94       0.00       0.00       1.13      74.80       4.60      79.40        1.09   659.01   0.969
  
  
  ******************
  Node Depth Summary
  ******************
  
  ---------------------------------------------------------------------------------
                                 Average  Maximum  Maximum  Time of Max    Reported
                                   Depth    Depth      HGL   Occurrence   Max Depth
  Node                 Type       Meters   Meters   Meters  days hr:min      Meters
  ---------------------------------------------------------------------------------
  WS02003060           JUNCTION     0.26     0.38     5.32     0  02:52        0.38
  WS02003066           JUNCTION     0.21     0.30     5.85     0  02:52        0.30
  WS02003067           JUNCTION     0.53     0.70     6.02     0  02:51        0.70
  WS02003069           JUNCTION     0.28     0.43     5.02     0  02:53        0.43
  WS02003072           JUNCTION     0.35     0.50     4.87     0  02:59        0.50
  WS02003073           JUNCTION     0.20     0.30     4.36     0  03:00        0.30
  WS02004401           JUNCTION     0.63     0.88     6.88     0  02:49        0.88
  WS02004402           JUNCTION     0.67     0.91     6.87     0  02:49        0.91
  WS02004403           JUNCTION     0.69     0.92     6.85     0  02:52        0.92
  WS02004404           JUNCTION     0.76     1.06     6.91     0  02:25        1.02
  WS02004405           JUNCTION     0.75     0.97     6.82     0  02:50        0.97
  WS02004406           JUNCTION     0.76     0.96     6.79     0  02:50        0.96
  WS02004407           JUNCTION     0.19     0.30     6.61     0  02:50        0.30
  WS02004409           JUNCTION     0.43     0.67     6.44     0  02:50        0.67
  WS02004410           JUNCTION     0.45     0.68     6.40     0  02:50        0.68
  WS02004411           JUNCTION     0.47     0.69     6.37     0  02:51        0.69
  WS02004412           JUNCTION     0.49     0.70     6.34     0  02:51        0.70
  WS02004413           JUNCTION     0.65     0.86     6.33     0  02:51        0.86
  WS02006109           JUNCTION     0.69     1.22     7.83     0  02:28        1.01
  WS02006110           JUNCTION     0.69     1.17     7.75     0  02:28        0.97
  WS02006111           JUNCTION     0.19     0.29     6.99     0  02:59        0.29
  WS02006112           JUNCTION     0.79     1.09     6.97     0  02:54        1.08
  WS02006113           JUNCTION     0.30     0.46     7.35     0  03:18        0.46
  WS02006115           JUNCTION     0.52     0.78     6.92     0  02:55        0.78
  WS02006116           JUNCTION     0.60     0.86     6.90     0  02:55        0.86
  WS02006228           JUNCTION     0.68     1.26     7.91     0  02:28        1.03
  WS02006229           JUNCTION     0.65     1.25     7.94     0  02:28        1.07
  WS02006230           JUNCTION     0.65     1.47     8.21     0  02:28        1.23
  WS02006231           JUNCTION     0.46     1.24     8.36     0  02:20        1.01
  WS02006232           JUNCTION     0.60     1.34     8.38     0  02:20        1.21
  WS02006234           JUNCTION     0.52     1.58     8.74     0  02:20        1.23
  WS02006235           JUNCTION     0.56     1.53     8.69     0  02:20        1.27
  WS02006238           JUNCTION     0.59     1.57     8.71     0  02:20        1.44
  WS02006239           JUNCTION     0.56     1.53     8.74     0  02:20        1.30
  WS02006240           JUNCTION     0.52     1.64     8.93     0  02:02        1.37
  WS02006242           JUNCTION     0.59     1.55     8.82     0  02:02        1.32
  WS02006243           JUNCTION     0.49     1.48     8.90     0  02:40        1.19
  WS02006245           JUNCTION     0.49     1.51     9.00     0  02:40        1.15
  WS02006247           JUNCTION     0.51     1.47     8.97     0  02:40        1.47
  WS02006248           JUNCTION     0.46     1.10     8.69     0  02:20        1.10
  WS02006249           JUNCTION     0.50     1.09     8.69     0  01:43        1.09
  WS02006251           JUNCTION     0.49     1.83     9.50     0  02:11        1.13
  WS02006252           JUNCTION     0.37     1.50     9.74     0  00:00        0.76
  WS02006256           JUNCTION     1.04     2.35     9.28     0  00:00        2.35
  WSF200               JUNCTION     0.19     0.29     5.53     0  02:52        0.29
  YS02001580           JUNCTION     0.08     1.05     9.59     0  02:06        1.05
  YS02001583           JUNCTION     0.12     1.14     9.64     0  02:06        1.00
  YS02001586           JUNCTION     0.18     1.13     9.30     0  02:06        1.13
  YS02001590           JUNCTION     0.28     1.40     9.26     0  02:07        1.40
  YS02001593           JUNCTION     0.21     1.35     9.21     0  02:07        1.35
  YS02001596           JUNCTION     0.29     1.75     9.17     0  02:40        1.75
  YS02001600           JUNCTION     0.34     1.87     9.00     0  02:06        1.87
  YS02001601           JUNCTION     0.53     2.06     8.90     0  02:06        2.06
  YS02001602           JUNCTION     0.44     1.87     8.77     0  02:11        1.87
  YS02001605           JUNCTION     0.41     1.78     8.68     0  02:36        1.78
  YS02001607           JUNCTION     0.41     1.68     8.53     0  02:40        1.68
  YS02001610           JUNCTION     0.46     1.68     8.48     0  02:11        1.68
  YS02001613           JUNCTION     0.42     1.70     8.54     0  02:40        1.70
  YS02001616           JUNCTION     0.34     1.61     8.52     0  02:17        1.61
  YS02001619           JUNCTION     0.32     1.61     8.54     0  02:17        1.61
  YS02001622           JUNCTION     0.31     1.62     8.52     0  02:40        1.58
  YS02001625           JUNCTION     0.59     1.78     8.38     0  02:12        1.78
  YS02001629           JUNCTION     0.43     1.85     8.40     0  02:13        1.85
  YS02001633           JUNCTION     0.51     2.08     8.53     0  02:17        2.08
  YS02001641           JUNCTION     0.50     2.04     8.48     0  02:17        2.04
  YS02001644           JUNCTION     0.49     1.92     8.35     0  02:16        1.92
  YS02001647           JUNCTION     0.28     1.80     8.41     0  02:17        1.80
  YS02001649           JUNCTION     0.32     2.01     8.40     0  02:23        2.01
  YS02001652           JUNCTION     0.22     1.88     8.48     0  02:23        1.87
  YS02001655           JUNCTION     0.17     1.71     8.56     0  02:24        1.71
  YS02001658           JUNCTION     0.12     1.50     8.65     0  02:24        1.50
  YS02001661           JUNCTION     0.15     1.32     8.73     0  02:24        1.31
  YS02001664           JUNCTION     0.05     0.84     8.77     0  02:24        0.82
  YS02001745           JUNCTION     0.07     0.98     8.49     0  02:24        0.97
  YS02001748           JUNCTION     0.12     1.39     8.47     0  02:24        1.38
  YS02001751           JUNCTION     0.14     1.55     8.43     0  02:23        1.55
  YS02001754           JUNCTION     0.19     1.79     8.40     0  02:23        1.79
  YS02001757           JUNCTION     0.34     2.10     8.36     0  02:24        2.10
  YS02001759           JUNCTION     0.28     2.10     8.46     0  02:23        2.09
  YS02001762           JUNCTION     0.27     2.07     8.47     0  02:24        2.07
  YS02001765           JUNCTION     0.26     2.00     8.45     0  02:24        2.00
  YS02001767           JUNCTION     0.25     1.96     8.45     0  02:23        1.95
  YS02001770           JUNCTION     0.26     1.95     8.44     0  02:21        1.95
  YS02001774           JUNCTION     0.33     2.00     8.42     0  02:25        2.00
  YS02001779           JUNCTION     0.17     1.68     8.37     0  02:12        1.68
  YS02001783           JUNCTION     0.22     1.26     7.40     0  02:13        1.24
  YS02001784           JUNCTION     0.24     1.14     7.20     0  02:17        1.14
  YS02001786           JUNCTION     0.20     0.89     6.92     0  02:13        0.87
  YS02001788           JUNCTION     0.14     0.63     6.60     0  02:23        0.63
  YS02001790           JUNCTION     0.17     0.73     6.38     0  02:23        0.72
  YS02001791           JUNCTION     0.11     0.44     5.91     0  02:19        0.43
  YS02001793           JUNCTION     0.06     0.30     5.13     0  02:15        0.30
  YS02001882           JUNCTION     0.29     1.74     8.46     0  02:40        1.68
  YS02001884           JUNCTION     0.38     1.82     8.43     0  02:17        1.82
  YS02001887           JUNCTION     0.46     1.90     8.44     0  02:17        1.90
  YS02001890           JUNCTION     0.49     1.81     8.32     0  02:13        1.81
  YS02001895           JUNCTION     0.25     1.57     8.32     0  02:37        1.57
  YS02001898           JUNCTION     0.26     1.60     8.33     0  02:40        1.56
  YS02001901           JUNCTION     0.38     1.70     8.31     0  02:40        1.68
  YS02001904           JUNCTION     0.36     1.64     8.27     0  02:17        1.64
  YS02001907           JUNCTION     0.69     1.96     8.25     0  02:13        1.96
  YS02001910           JUNCTION     0.48     2.01     8.52     0  02:25        2.01
  YS02001915           JUNCTION     0.29     2.00     8.72     0  02:24        2.00
  YS02001918           JUNCTION     0.15     1.81     8.87     0  02:14        1.70
  YS02001920           JUNCTION     0.23     1.96     8.97     0  02:14        1.79
  YS02001923           JUNCTION     0.12     1.77     9.03     0  02:14        1.56
  YS02001926           JUNCTION     0.15     1.62     9.07     0  02:14        1.39
  YS02001929           JUNCTION     0.08     1.58     9.27     0  02:14        1.18
  YS02006553           JUNCTION     0.69     2.09     8.38     0  02:17        2.09
  YS02006556           JUNCTION     0.66     1.99     8.30     0  02:17        1.99
  YS02006558           JUNCTION     0.71     2.19     8.45     0  02:17        2.19
  YS02006561           JUNCTION     0.14     0.94     7.60     0  02:13        0.91
  YS02163301           JUNCTION     0.45     1.94     8.45     0  02:40        1.92
  YS02163601           JUNCTION     0.55     2.08     8.48     0  02:17        2.08
  YS02164001           JUNCTION     0.48     2.10     8.56     0  02:17        2.10
  CC-1                 OUTFALL      0.00     0.00     0.00     0  00:00        0.00
  CC-2                 OUTFALL      0.00     0.00     0.00     0  00:00        0.00
  JK-1                 OUTFALL      0.00     0.00     0.00     0  00:00        0.00
  JK-2                 OUTFALL      0.00     0.00     0.00     0  00:00        0.00
  WSC                  OUTFALL      0.20     0.30     0.97     0  03:00        0.30
  CC-storage           STORAGE      0.85     1.81     7.31     0  02:48        1.81
  JK-storage           STORAGE      2.46     4.23     5.03     0  02:15        4.21
  
  
  *******************
  Node Inflow Summary
  *******************
  
  -------------------------------------------------------------------------------------------------
                                  Maximum  Maximum                  Lateral       Total        Flow
                                  Lateral    Total  Time of Max      Inflow      Inflow     Balance
                                   Inflow   Inflow   Occurrence      Volume      Volume       Error
  Node                 Type           LPS      LPS  days hr:min    10^6 ltr    10^6 ltr     Percent
  -------------------------------------------------------------------------------------------------
  WS02003060           JUNCTION     16.53   557.37     0  02:52       0.476        6.55       0.031
  WS02003066           JUNCTION      0.00   540.46     0  02:52           0        6.07       0.021
  WS02003067           JUNCTION      0.00   540.39     0  02:51           0        6.08       0.066
  WS02003069           JUNCTION      0.32   557.35     0  02:52     0.00922        6.56       0.053
  WS02003072           JUNCTION      0.00   557.06     0  02:58           0        6.55       0.098
  WS02003073           JUNCTION      1.82   558.82     0  02:59      0.0524         6.6       0.078
  WS02004401           JUNCTION      0.00   539.92     0  02:50           0        6.17       0.161
  WS02004402           JUNCTION      0.00   543.55     0  02:49           0        6.16       0.164
  WS02004403           JUNCTION      0.00   544.76     0  02:49           0        6.15       0.159
  WS02004404           JUNCTION      0.16   563.69     0  02:48     0.00467        6.14       0.128
  WS02004405           JUNCTION      0.04   608.18     0  02:54      0.0011        6.14       0.108
  WS02004406           JUNCTION      0.00   546.71     0  02:50           0        6.13       0.331
  WS02004407           JUNCTION      0.00   541.97     0  02:50           0        6.11       0.016
  WS02004409           JUNCTION      0.00   541.39     0  02:50           0        6.11       0.038
  WS02004410           JUNCTION      0.00   541.14     0  02:50           0        6.11       0.065
  WS02004411           JUNCTION      0.00   540.90     0  02:50           0         6.1       0.085
  WS02004412           JUNCTION      0.00   540.65     0  02:51           0         6.1       0.116
  WS02004413           JUNCTION      0.00   540.68     0  02:51           0        6.09       0.208
  WS02006109           JUNCTION      1.23   561.82     0  02:28      0.0354        6.21       0.114
  WS02006110           JUNCTION      0.00   562.87     0  02:28           0        6.21       0.096
  WS02006111           JUNCTION      0.00   559.87     0  02:20           0         6.2       0.012
  WS02006112           JUNCTION      0.00   543.37     0  03:20           0         6.2       0.273
  WS02006113           JUNCTION      0.00   573.58     0  02:28           0         6.2       0.026
  WS02006115           JUNCTION      0.00   554.23     0  03:11           0        6.18       0.101
  WS02006116           JUNCTION      0.00   542.87     0  02:55           0        6.18       0.089
  WS02006228           JUNCTION      0.00   559.19     0  02:28           0        6.18       0.037
  WS02006229           JUNCTION      0.00   558.85     0  02:28           0        6.18       0.066
  WS02006230           JUNCTION     10.28   589.29     0  02:20       0.296        6.19       0.058
  WS02006231           JUNCTION      0.00   572.17     0  03:10           0        5.89       0.001
  WS02006232           JUNCTION      0.00   571.36     0  03:10           0         5.9       0.125
  WS02006234           JUNCTION      0.00   567.18     0  02:27           0        5.89      -0.103
  WS02006235           JUNCTION      0.00   560.32     0  02:27           0        5.92       0.118
  WS02006238           JUNCTION      0.00   424.99     0  03:05           0        4.83      -0.126
  WS02006239           JUNCTION      0.00   424.02     0  03:05           0        4.81      -0.156
  WS02006240           JUNCTION      0.00   419.51     0  03:05           0         4.8      -0.051
  WS02006242           JUNCTION      0.00   419.46     0  02:25           0        4.79       0.001
  WS02006243           JUNCTION      0.00   419.30     0  03:05           0        4.78      -0.113
  WS02006245           JUNCTION      0.00   419.38     0  03:05           0        4.79       0.264
  WS02006247           JUNCTION      0.00   420.37     0  03:05           0        4.79       0.005
  WS02006248           JUNCTION      0.00   421.73     0  03:05           0        4.79      -0.011
  WS02006249           JUNCTION      0.00   459.02     0  00:00           0        5.05       0.264
  WS02006251           JUNCTION      0.08   412.67     0  02:11     0.00222        5.05      -0.001
  WS02006252           JUNCTION      0.00   400.00     0  00:00           0        5.05      -0.086
  WS02006256           JUNCTION      0.00   300.00     0  00:00           0        1.59      -0.408
  WSF200               JUNCTION      0.00   540.52     0  02:52           0        6.07       0.006
  YS02001580           JUNCTION      0.00    73.34     0  02:06           0     0.00427       0.977
  YS02001583           JUNCTION      0.00   111.15     0  02:06           0      0.0159      -3.253
  YS02001586           JUNCTION   1080.85  1080.85     0  02:26        2.16        2.18       0.044
  YS02001590           JUNCTION      0.00   319.03     0  02:40           0         1.5      -0.033
  YS02001593           JUNCTION      0.00   319.04     0  02:40           0         1.5       0.004
  YS02001596           JUNCTION      0.00   318.06     0  02:17           0         1.5      -0.008
  YS02001600           JUNCTION      0.00   318.21     0  02:40           0         1.5       0.018
  YS02001601           JUNCTION   1866.82  2184.32     0  02:25        2.95        4.45       0.018
  YS02001602           JUNCTION      0.00   494.11     0  02:06           0        2.49       0.019
  YS02001605           JUNCTION      0.00   493.84     0  02:06           0        2.35       0.031
  YS02001607           JUNCTION      0.00   493.75     0  02:06           0        2.35       0.082
  YS02001610           JUNCTION      0.00   950.66     0  02:27           0        2.82       0.081
  YS02001613           JUNCTION      0.00   614.60     0  02:29           0        2.23       0.066
  YS02001616           JUNCTION      0.00   614.59     0  02:27           0        2.23       0.020
  YS02001619           JUNCTION   1921.28  1921.28     0  02:26        3.48        5.23      -0.000
  YS02001622           JUNCTION      0.00  1053.93     0  02:27           0        4.69       0.001
  YS02001625           JUNCTION      0.00  1504.90     0  02:28           0        5.07       0.195
  YS02001629           JUNCTION      0.00   920.51     0  02:11           0        3.76       0.026
  YS02001633           JUNCTION   1405.63  1405.63     0  02:25        2.17        5.47       0.062
  YS02001641           JUNCTION      0.00  1314.29     0  02:11           0        5.01       0.058
  YS02001644           JUNCTION   1256.46  2233.04     0  02:25        1.88        6.93       0.053
  YS02001647           JUNCTION      0.00  1671.44     0  02:12           0        5.89       0.007
  YS02001649           JUNCTION      0.00  1883.82     0  02:13           0        7.57       0.007
  YS02001652           JUNCTION      0.00  1241.59     0  02:25           0        1.73      -0.063
  YS02001655           JUNCTION      0.15  1241.82     0  02:25     0.00443        1.73      -0.015
  YS02001658           JUNCTION      0.00  1241.79     0  02:25           0        1.73      -0.014
  YS02001661           JUNCTION      0.00  1242.72     0  02:25           0        1.73       0.003
  YS02001664           JUNCTION   1237.58  1237.58     0  02:25        1.72        1.72      -0.008
  YS02001745           JUNCTION    771.43   771.43     0  02:25        1.04        1.04       0.137
  YS02001748           JUNCTION      0.04   775.96     0  02:25      0.0013        1.04      -0.232
  YS02001751           JUNCTION      0.01   776.05     0  02:25    0.000317        1.04      -0.018
  YS02001754           JUNCTION      0.26   776.33     0  02:25     0.00749        1.05      -0.112
  YS02001757           JUNCTION      0.00  3121.75     0  02:18           0        11.7       0.021
  YS02001759           JUNCTION   1073.77  1357.75     0  02:25        1.43        3.11      -0.002
  YS02001762           JUNCTION      0.00   720.74     0  02:18           0        1.68       0.007
  YS02001765           JUNCTION      0.00   719.35     0  02:18           0        1.68       0.015
  YS02001767           JUNCTION      0.54   720.07     0  02:18      0.0154        1.68       0.010
  YS02001770           JUNCTION   1520.33  1520.33     0  02:25        2.18        2.23      -0.009
  YS02001774           JUNCTION      0.00   851.20     0  02:27           0       0.526       0.212
  YS02001779           JUNCTION      0.01   851.47     0  02:27    0.000144       0.479      -0.139
  YS02001783           JUNCTION      0.00  1171.16     0  02:24           0        4.53       0.008
  YS02001784           JUNCTION      1.06  1171.61     0  02:24      0.0305        4.56       0.013
  YS02001786           JUNCTION      0.06  1172.01     0  02:24     0.00162        4.57       0.017
  YS02001788           JUNCTION      0.07  1171.87     0  02:24     0.00204        4.57       0.007
  YS02001790           JUNCTION      0.15  1184.79     0  02:24     0.00446        4.57       0.025
  YS02001791           JUNCTION      0.00  1300.71     0  02:23           0        4.57      -0.034
  YS02001793           JUNCTION      0.00  1258.04     0  02:21           0        4.57       0.005
  YS02001882           JUNCTION      0.00    30.97     0  02:10           0      0.0131       5.475
  YS02001884           JUNCTION      0.00    48.16     0  02:40           0      0.0495       5.472
  YS02001887           JUNCTION   1142.01  1142.01     0  02:25        1.49        1.53       0.309
  YS02001890           JUNCTION      0.00  1142.53     0  02:25           0        1.48       0.368
  YS02001895           JUNCTION      0.00   517.96     0  02:27           0        1.25       0.137
  YS02001898           JUNCTION      0.00   517.98     0  02:29           0        1.25       0.011
  YS02001901           JUNCTION      0.00   517.81     0  02:27           0        1.25       0.283
  YS02001904           JUNCTION      0.00   517.66     0  02:27           0        1.25       0.243
  YS02001907           JUNCTION      0.00  2893.87     0  02:25           0        4.58       0.397
  YS02001910           JUNCTION      0.00  1992.41     0  02:25           0        3.25       0.235
  YS02001915           JUNCTION   1353.06  2014.83     0  02:25        2.08        3.27       0.050
  YS02001918           JUNCTION      0.00   664.79     0  02:25           0        1.21       0.019
  YS02001920           JUNCTION      2.87   664.88     0  02:25      0.0827         1.2       0.081
  YS02001923           JUNCTION      0.04   661.15     0  02:25     0.00109        1.11      -0.010
  YS02001926           JUNCTION      0.05   660.66     0  02:25      0.0015         1.1       0.022
  YS02001929           JUNCTION    659.01   659.01     0  02:25        1.09        1.09      -0.038
  YS02006553           JUNCTION      0.00   830.40     0  02:40           0        2.56       0.467
  YS02006556           JUNCTION      0.00   829.57     0  02:40           0        2.57       0.314
  YS02006558           JUNCTION   1559.41  1559.41     0  02:25        2.19        4.65       0.078
  YS02006561           JUNCTION      0.00  1170.82     0  02:24           0        4.53      -0.005
  YS02163301           JUNCTION      0.00   922.77     0  02:11           0        3.76       0.041
  YS02163601           JUNCTION      0.11  1315.89     0  02:11     0.00317        5.01       0.097
  YS02164001           JUNCTION      0.00  1316.23     0  02:11           0        5.01       0.046
  CC-1                 OUTFALL       0.00   683.00     0  00:00           0        4.07       0.000
  CC-2                 OUTFALL       0.00   683.00     0  00:00           0        3.41       0.000
  JK-1                 OUTFALL       0.00  1000.00     0  00:00           0         2.6       0.000
  JK-2                 OUTFALL       0.00  1000.00     0  00:00           0        0.45       0.000
  WSC                  OUTFALL       0.00   558.75     0  03:00           0        6.59       0.000
  CC-storage           STORAGE       0.00  3120.45     0  02:18           0        13.9      -0.207
  JK-storage           STORAGE       0.00  1259.00     0  02:32           0        4.72      -0.223
  
  
  **********************
  Node Surcharge Summary
  **********************
  
  Surcharging occurs when water rises above the top of the highest conduit.
  ---------------------------------------------------------------------
                                               Max. Height   Min. Depth
                                   Hours       Above Crown    Below Rim
  Node                 Type      Surcharged         Meters       Meters
  ---------------------------------------------------------------------
  WS02004404           JUNCTION        0.06          0.056        2.724
  WS02006109           JUNCTION        2.20          0.397        1.423
  WS02006110           JUNCTION        0.89          0.260        1.590
  WS02006112           JUNCTION        1.00          0.086        1.594
  WS02006228           JUNCTION        2.19          0.432        1.768
  WS02006229           JUNCTION        2.20          0.447        2.003
  WS02006230           JUNCTION        0.90          0.386        1.184
  WS02006231           JUNCTION        1.00          0.531        0.999
  WS02006232           JUNCTION        2.30          0.643        0.837
  WS02006234           JUNCTION        1.27          0.863        0.377
  WS02006235           JUNCTION        2.18          0.815        0.475
  WS02006238           JUNCTION        2.24          0.847        0.583
  WS02006239           JUNCTION        2.18          0.788        0.502
  WS02006240           JUNCTION        2.20          0.927        0.463
  WS02006242           JUNCTION        2.30          0.820        0.000
  WS02006243           JUNCTION        2.14          0.770        0.000
  WS02006245           JUNCTION        2.11          0.804        0.046
  WS02006247           JUNCTION        2.13          0.760        0.000
  WS02006248           JUNCTION        2.08          0.380        0.000
  WS02006249           JUNCTION        2.10          0.390        0.000
  WS02006251           JUNCTION        1.02          0.803        0.377
  WS02006252           JUNCTION        2.59          1.100        0.000
  WS02006256           JUNCTION        6.30          2.050        0.000
  YS02001580           JUNCTION        0.76          0.450        0.000
  YS02001583           JUNCTION        0.77          0.500        0.000
  YS02001586           JUNCTION        0.89          0.510        0.000
  YS02001590           JUNCTION        0.97          0.750        0.000
  YS02001593           JUNCTION        0.96          0.730        0.110
  YS02001596           JUNCTION        1.08          1.018        0.052
  YS02001600           JUNCTION        1.24          1.190        0.000
  YS02001601           JUNCTION        1.59          1.440        0.000
  YS02001602           JUNCTION        1.47          1.270        0.000
  YS02001605           JUNCTION        1.42          1.180        0.000
  YS02001607           JUNCTION        0.96          0.680        0.000
  YS02001610           JUNCTION        0.98          0.680        0.000
  YS02001613           JUNCTION        0.95          0.700        0.000
  YS02001616           JUNCTION        0.91          0.610        0.000
  YS02001619           JUNCTION        0.90          0.610        0.000
  YS02001622           JUNCTION        0.89          0.620        0.000
  YS02001625           JUNCTION        1.07          0.780        0.000
  YS02001629           JUNCTION        0.84          0.470        0.000
  YS02001633           JUNCTION        1.10          1.060        0.000
  YS02001641           JUNCTION        1.04          1.039        0.061
  YS02001644           JUNCTION        1.01          0.920        0.000
  YS02001647           JUNCTION        0.79          0.795        0.105
  YS02001649           JUNCTION        0.90          1.014        0.036
  YS02001652           JUNCTION        0.73          0.853        0.277
  YS02001655           JUNCTION        0.55          0.715        0.485
  YS02001658           JUNCTION        0.34          0.504        0.796
  YS02001661           JUNCTION        0.12          0.253        1.137
  YS02001748           JUNCTION        0.27          0.310        0.880
  YS02001751           JUNCTION        0.43          0.550        0.650
  YS02001754           JUNCTION        0.64          0.739        0.411
  YS02001757           JUNCTION        0.96          1.100        0.110
  YS02001759           JUNCTION        0.88          1.097        0.113
  YS02001762           JUNCTION        0.85          1.066        0.084
  YS02001765           JUNCTION        0.81          1.003        0.097
  YS02001767           JUNCTION        0.79          0.964        0.066
  YS02001770           JUNCTION        0.75          0.920        0.000
  YS02001774           JUNCTION        0.84          1.002        0.048
  YS02001779           JUNCTION        0.62          0.680        0.000
  YS02001783           JUNCTION        0.64          0.457        1.143
  YS02001784           JUNCTION        0.62          0.336        1.154
  YS02001786           JUNCTION        0.50          0.089        1.341
  YS02001882           JUNCTION        0.58          0.740        0.090
  YS02001884           JUNCTION        0.59          0.758        0.112
  YS02001887           JUNCTION        0.63          0.852        0.098
  YS02001890           JUNCTION        0.65          0.760        0.000
  YS02001895           JUNCTION        0.57          0.574        0.176
  YS02001898           JUNCTION        0.56          0.567        0.173
  YS02001901           JUNCTION        0.62          0.698        0.172
  YS02001904           JUNCTION        0.61          0.642        0.208
  YS02001907           JUNCTION        0.92          0.950        0.000
  YS02001910           JUNCTION        0.68          1.013        0.087
  YS02001915           JUNCTION        0.58          1.000        0.000
  YS02001918           JUNCTION        0.49          0.808        0.002
  YS02001920           JUNCTION        0.50          0.960        0.180
  YS02001923           JUNCTION        0.19          0.563        0.257
  YS02001926           JUNCTION        0.22          0.622        0.278
  YS02001929           JUNCTION        0.09          0.579        0.201
  YS02006553           JUNCTION        0.93          1.091        0.099
  YS02006556           JUNCTION        0.79          0.952        0.398
  YS02006558           JUNCTION        0.77          1.086        0.314
  YS02006561           JUNCTION        0.45          0.137        1.013
  YS02163301           JUNCTION        1.08          0.936        0.094
  YS02163601           JUNCTION        1.13          1.080        0.000
  YS02164001           JUNCTION        1.04          1.100        0.000
  
  
  *********************
  Node Flooding Summary
  *********************
  
  Flooding refers to all water that overflows a node, whether it ponds or not.
  --------------------------------------------------------------------------
                                                             Total   Maximum
                                 Maximum   Time of Max       Flood    Ponded
                        Hours       Rate    Occurrence      Volume     Depth
  Node                 Flooded       LPS   days hr:min    10^6 ltr    Meters
  --------------------------------------------------------------------------
  WS02006242              0.01     25.56      0  02:02       0.000     0.000
  WS02006243              0.01      4.70      0  02:40       0.000     0.000
  WS02006247              0.01      0.40      0  02:40       0.000     0.000
  WS02006248              0.01     26.09      0  02:40       0.000     0.000
  WS02006249              1.00    131.96      0  02:11       0.250     0.000
  WS02006252              0.01    245.63      0  00:00       0.000     0.000
  WS02006256              1.47    293.19      0  00:00       0.492     0.000
  YS02001580              0.01     67.02      0  02:06       0.000     0.000
  YS02001583              0.01     46.66      0  02:06       0.000     0.000
  YS02001586              0.61    763.07      0  02:26       0.668     0.000
  YS02001590              0.01      0.31      0  02:07       0.000     0.000
  YS02001600              0.01      2.93      0  02:40       0.000     0.000
  YS02001601              0.82   1786.14      0  02:25       1.960     0.000
  YS02001602              0.68     62.44      0  02:17       0.141     0.000
  YS02001605              0.01      0.31      0  02:44       0.000     0.000
  YS02001607              0.01      0.23      0  02:40       0.000     0.000
  YS02001610              0.61    950.37      0  02:27       1.065     0.000
  YS02001613              0.01      0.45      0  02:40       0.000     0.000
  YS02001616              0.06     45.83      0  02:40       0.000     0.000
  YS02001619              0.11    261.51      0  02:26       0.057     0.000
  YS02001622              0.01      3.78      0  02:40       0.000     0.000
  YS02001625              0.58   1504.75      0  02:28       1.757     0.000
  YS02001629              0.20    283.49      0  02:25       0.081     0.000
  YS02001633              0.01      1.28      0  02:17       0.000     0.000
  YS02001644              0.30   2233.02      0  02:25       1.080     0.000
  YS02001770              0.08    391.05      0  02:25       0.061     0.000
  YS02001779              0.27    851.07      0  02:27       0.458     0.000
  YS02001890              0.25    625.20      0  02:25       0.230     0.000
  YS02001907              0.43   2892.85      0  02:25       2.091     0.000
  YS02001915              0.02     32.63      0  02:25       0.001     0.000
  YS02163601              0.01      6.45      0  02:40       0.000     0.000
  YS02164001              0.01      0.82      0  02:17       0.000     0.000
  
  
  **********************
  Storage Volume Summary
  **********************
  
  ------------------------------------------------------------------------------------------------
                         Average    Avg   Evap  Exfil     Maximum    Max    Time of Max    Maximum
                          Volume   Pcnt   Pcnt   Pcnt      Volume   Pcnt     Occurrence    Outflow
  Storage Unit           1000 m³   Full   Loss   Loss     1000 m³   Full    days hr:min        LPS
  ------------------------------------------------------------------------------------------------
  CC-storage               2.381   37.1    0.0    0.0       5.057   78.9       0  02:48    1783.53
  JK-storage               0.123   42.4    0.0    0.0       0.213   72.9       0  02:15    2300.00
  
  
  ***********************
  Outfall Loading Summary
  ***********************
  
  -----------------------------------------------------------
                         Flow       Avg       Max       Total
                         Freq      Flow      Flow      Volume
  Outfall Node           Pcnt       LPS       LPS    10^6 ltr
  -----------------------------------------------------------
  CC-1                  20.02    683.00    683.00       4.073
  CC-2                  17.16    683.00    683.00       3.407
  JK-1                  10.37   1000.00   1000.00       2.604
  JK-2                   1.83   1000.00   1000.00       0.450
  WSC                   99.97    282.05    558.75       6.594
  -----------------------------------------------------------
  System                29.87   3648.05   3922.20      17.128
  
  
  ********************
  Link Flow Summary
  ********************
  
  -----------------------------------------------------------------------------
                                 Maximum  Time of Max   Maximum    Max/    Max/
                                  |Flow|   Occurrence   |Veloc|    Full    Full
  Link                 Type          LPS  days hr:min     m/sec    Flow   Depth
  -----------------------------------------------------------------------------
  1                    CONDUIT    558.75     0  03:00      2.83    0.19    0.30
  WS02003060WS02003069 CONDUIT    557.03     0  02:52      1.64    0.22    0.34
  WS02003066WSF200     CONDUIT    540.52     0  02:52      2.86    0.09    0.22
  WS02003067WS02003066 CONDUIT    540.46     0  02:52      1.21    0.17    0.42
  WS02003069WS02003072 CONDUIT    557.06     0  02:58      1.37    0.27    0.39
  WS02003072WS02003073 CONDUIT    557.00     0  02:59      1.44    1.20    0.37
  WS02004401WS02004402 CONDUIT    543.55     0  02:49      0.98    0.65    0.89
  WS02004402WS02004403 CONDUIT    544.76     0  02:49      0.97    0.78    0.91
  WS02004403WS02004404 CONDUIT    563.53     0  02:48      0.92    0.41    0.96
  WS02004404WS02004405 CONDUIT    608.14     0  02:54      1.08    5.96    0.98
  WS02004405WS02004406 CONDUIT    546.71     0  02:50      0.99    1.08    0.96
  WS02004406WS02004407 CONDUIT    541.97     0  02:50      1.04    0.24    0.63
  WS02004407WS02004409 CONDUIT    541.39     0  02:50      1.55    0.19    0.48
  WS02004409WS02004410 CONDUIT    541.14     0  02:50      1.02    0.70    0.68
  WS02004410WS02004411 CONDUIT    540.90     0  02:50      0.94    0.74    0.69
  WS02004411WS02004412 CONDUIT    540.65     0  02:51      0.93    0.77    0.70
  WS02004412WS02004413 CONDUIT    540.68     0  02:51      0.82    0.36    0.78
  WS02004413WS02003067 CONDUIT    540.39     0  02:51      1.11    0.23    0.59
  WS02006109WS02006110 CONDUIT    562.87     0  02:28      1.12    1.08    1.00
  WS02006110WS02006113 CONDUIT    573.58     0  02:28      1.39    0.52    0.78
  WS02006111WS02006112 CONDUIT    543.37     0  03:20      1.81    0.26    0.67
  WS02006112WS02006115 CONDUIT    554.23     0  03:11      0.84    0.33    0.88
  WS02006113WS02006111 CONDUIT    559.87     0  02:20      2.47    0.67    0.46
  WS02006115WS02006116 CONDUIT    542.87     0  02:55      1.01    0.70    0.79
  WS02006116WS02004401 CONDUIT    539.92     0  02:50      0.98    0.74    0.87
  WS02006228WS02006109 CONDUIT    560.59     0  02:28      1.12    2.45    1.00
  WS02006229WS02006228 CONDUIT    559.19     0  02:28      1.14    1.85    1.00
  WS02006230WS02006229 CONDUIT    558.85     0  02:28      1.45   12.44    1.00
  WS02006231WS02006230 CONDUIT    579.01     0  02:20      1.56    8.78    1.00
  WS02006232WS02006231 CONDUIT    572.17     0  03:10      1.49    1.20    1.00
  WS02006234WS02006232 CONDUIT    571.36     0  03:10      1.48    1.16    1.00
  WS02006235WS02006234 CONDUIT    567.18     0  02:27      1.47    5.98    1.00
  WS02006238WS02006235 CONDUIT    426.20     0  03:05      1.45    0.95    1.00
  WS02006239WS02006238 CONDUIT    424.99     0  03:05      1.12    1.36    1.00
  WS02006240WS02006239 CONDUIT    424.02     0  03:05      1.28    1.33    1.00
  WS02006242WS02006240 CONDUIT    419.51     0  03:05      1.13    1.67    1.00
  WS02006243WS02006242 CONDUIT    419.46     0  02:25      1.40    0.90    1.00
  WS02006245WS02006243 CONDUIT    419.30     0  03:05      1.45    1.24    1.00
  WS02006247WS02006245 CONDUIT    419.38     0  03:05      1.43    3.33    1.00
  WS02006248WS02006247 CONDUIT    420.37     0  03:05      1.46    0.92    1.00
  WS02006249WS02006248 CONDUIT    421.73     0  03:05      1.41    2.31    1.00
  WS02006251WS02006249 CONDUIT    459.02     0  00:00      2.10    1.32    1.00
  WS02006252WS02006251 CONDUIT    412.60     0  02:11     24.61    1.51    1.00
  WS02006256WS02006235 CONDUIT    288.91     0  00:00      4.23    3.06    1.00
  WSF200WS02003060     CONDUIT    540.84     0  02:52      2.07    0.12    0.28
  YS02001580YS02001583 CONDUIT     73.34     0  02:06      0.50    0.28    1.00
  YS02001583YS02001586 CONDUIT    111.15     0  02:06      0.47    0.17    1.00
  YS02001586YS02001590 CONDUIT    319.03     0  02:40      1.24    0.56    1.00
  YS02001590YS02001593 CONDUIT    319.04     0  02:40      1.13    2.00    1.00
  YS02001593YS02001596 CONDUIT    318.06     0  02:17      1.75    0.50    1.00
  YS02001596YS02001600 CONDUIT    318.21     0  02:40      1.29    0.62    1.00
  YS02001600YS02001601 CONDUIT    318.48     0  02:40      1.13    0.55    1.00
  YS02001601YS02001602 CONDUIT    494.11     0  02:06      1.75    1.78    1.00
  YS02001602YS02001605 CONDUIT    493.84     0  02:06      1.75   10.45    1.00
  YS02001605YS02001607 CONDUIT    493.75     0  02:06      1.75    2.71    1.00
  YS02001607YS02001610 CONDUIT    493.98     0  02:05      0.63    0.47    1.00
  YS02001610YS02001613 CONDUIT    614.13     0  02:29      0.78    0.71    1.00
  YS02001613YS02001616 CONDUIT    614.60     0  02:29      0.78    0.53    1.00
  YS02001616YS02001619 CONDUIT    614.59     0  02:27      0.78    1.07    1.00
  YS02001619YS02001622 CONDUIT   1053.93     0  02:27      1.34    1.55    1.00
  YS02001622YS02001625 CONDUIT   1053.63     0  02:27      1.34    0.56    1.00
  YS02001625YS02001629 CONDUIT    920.51     0  02:11      1.17    0.44    1.00
  YS02001629YS02163301 CONDUIT    922.77     0  02:11      1.17    1.14    1.00
  YS02001633YS02163601 CONDUIT   1315.78     0  02:11      1.68    1.38    1.00
  YS02001641YS02001644 CONDUIT   1313.48     0  02:11      1.67    4.25    1.00
  YS02001644YS02001647 CONDUIT   1671.44     0  02:12      2.16    0.98    1.00
  YS02001647YS02001649 CONDUIT   1672.45     0  02:12      2.28    0.88    1.00
  YS02001649YS02001757 CONDUIT   1886.04     0  02:13      2.43    1.14    1.00
  YS02001652YS02001649 CONDUIT   1242.14     0  02:25      1.58    0.62    1.00
  YS02001655YS02001652 CONDUIT   1241.59     0  02:25      1.58    0.60    1.00
  YS02001658YS02001655 CONDUIT   1241.67     0  02:25      1.80    0.53    1.00
  YS02001661YS02001658 CONDUIT   1241.79     0  02:25      2.19    0.49    1.00
  YS02001664YS02001661 CONDUIT   1242.72     0  02:25      2.12    0.39    0.92
  YS02001745YS02001748 CONDUIT    775.92     0  02:25      2.03    0.30    0.99
  YS02001748YS02001751 CONDUIT    776.04     0  02:25      1.60    0.39    1.00
  YS02001751YS02001754 CONDUIT    776.07     0  02:25      1.36    0.37    1.00
  YS02001754YS02001757 CONDUIT    776.06     0  02:25      0.99    0.31    1.00
  YS02001757CaochengTiaoxuchi CONDUIT   3120.45     0  02:18      3.97    1.35    1.00
  YS02001759YS02001757 CONDUIT   1357.08     0  02:25      1.73    0.96    1.00
  YS02001762YS02001759 CONDUIT    721.84     0  02:18      0.92    0.83    1.00
  YS02001765YS02001762 CONDUIT    720.74     0  02:18      0.92    0.68    1.00
  YS02001767YS02001765 CONDUIT    719.35     0  02:18      0.92    0.90    1.00
  YS02001770YS02001767 CONDUIT    719.53     0  02:18      0.92    2.85    1.00
  YS02001774YS02001770 CONDUIT    851.20     0  02:27      1.08    0.54    1.00
  YS02001779YS02001774 CONDUIT    851.46     0  02:27      1.08    0.43    1.00
  YS02001783YS02001784 CONDUIT   1170.55     0  02:24      2.33    1.61    1.00
  YS02001784YS02001785 CONDUIT   1171.95     0  02:24      2.33    2.73    1.00
  YS02001786YS02001788 CONDUIT   1171.80     0  02:24      2.49    2.26    0.89
  YS02001788YS02001790 CONDUIT   1184.64     0  02:24      2.72    0.87    0.85
  YS02001790YS02001791 CONDUIT   1300.71     0  02:23      3.45    1.42    0.71
  YS02001791YS02001793 CONDUIT   1258.04     0  02:21      6.70    0.54    0.45
  YS02001793JiankangQianchi CONDUIT   1259.00     0  02:32      2.52    0.10    0.65
  YS02001882YS02001884 CONDUIT     30.97     0  02:10      0.14    0.04    1.00
  YS02001884YS02001887 CONDUIT     48.16     0  02:40      0.10    0.06    1.00
  YS02001887YS02001890 CONDUIT   1142.53     0  02:25      1.45    1.96    1.00
  YS02001890YS02001895 CONDUIT    517.96     0  02:27      0.66    0.24    1.00
  YS02001895YS02001898 CONDUIT    517.98     0  02:29      0.66    0.90    1.00
  YS02001898YS02001901 CONDUIT    517.81     0  02:27      0.66    0.33    1.00
  YS02001901YS02001904 CONDUIT    517.66     0  02:27      0.66    0.80    1.00
  YS02001904YS02001907 CONDUIT    519.01     0  02:27      0.66    0.18    1.00
  YS02001907YS02006553 CONDUIT    830.40     0  02:40      0.92    0.98    1.00
  YS02001910YS02001907 CONDUIT   1991.89     0  02:26      2.54    1.12    1.00
  YS02001915YS02001910 CONDUIT   1992.41     0  02:25      2.54    0.99    1.00
  YS02001918YS02001915 CONDUIT    664.70     0  02:25      0.85    0.37    1.00
  YS02001920YS02001918 CONDUIT    664.79     0  02:25      0.85    0.64    1.00
  YS02001923YS02001920 CONDUIT    662.01     0  02:25      0.84    0.30    1.00
  YS02001926YS02001923 CONDUIT    661.11     0  02:25      0.94    0.94    1.00
  YS02001929YS02001926 CONDUIT    660.61     0  02:25      1.07    0.31    1.00
  YS02006553YS02006556 CONDUIT    829.57     0  02:40      1.06    0.71    1.00
  YS02006556YS02006558 CONDUIT    826.15     0  02:40      1.05    0.65    1.00
  YS02006558YS02006561 CONDUIT   1170.82     0  02:24      4.14    2.59    1.00
  YS02006561YS02001783 CONDUIT   1171.16     0  02:24      2.33    0.61    1.00
  YS02163301YS02001633 CONDUIT    922.69     0  02:11      1.17    0.87    1.00
  YS02163601YS02164001 CONDUIT   1316.23     0  02:11      1.68    1.17    1.00
  YS02164001YS02001641 CONDUIT   1314.29     0  02:11      1.67    1.79    1.00
  CC-R1                PUMP       683.00     0  00:00              1.00
  CC-R2                PUMP       683.00     0  00:00              1.00
  CC-S1                PUMP       200.00     0  00:00              1.00
  CC-S2                PUMP       200.00     0  00:00              1.00
  JK-R1                PUMP      1000.00     0  00:00              1.00
  JK-R2                PUMP      1000.00     0  00:00              1.00
  JK-S                 PUMP       300.00     0  00:00              1.00
  
  
  ***************************
  Flow Classification Summary
  ***************************
  
  -------------------------------------------------------------------------------------
                      Adjusted    ---------- Fraction of Time in Flow Class ---------- 
                       /Actual         Up    Down  Sub   Sup   Up    Down  Norm  Inlet 
  Conduit               Length    Dry  Dry   Dry   Crit  Crit  Crit  Crit  Ltd   Ctrl  
  -------------------------------------------------------------------------------------
  1                       1.00   0.00  0.00  0.00  0.00  1.00  0.00  0.00  0.42  0.00
  WS02003060WS02003069    1.00   0.00  0.00  0.00  0.98  0.02  0.00  0.00  0.59  0.00
  WS02003066WSF200        1.00   0.13  0.00  0.00  0.00  0.87  0.00  0.00  0.74  0.00
  WS02003067WS02003066    1.00   0.10  0.02  0.00  0.88  0.00  0.00  0.00  0.00  0.00
  WS02003069WS02003072    1.00   0.00  0.00  0.00  0.99  0.01  0.00  0.00  0.69  0.00
  WS02003072WS02003073    1.00   0.00  0.00  0.00  0.00  0.00  0.00  1.00  0.00  0.00
  WS02004401WS02004402    1.00   0.02  0.00  0.00  0.98  0.00  0.00  0.00  0.00  0.00
  WS02004402WS02004403    1.00   0.02  0.00  0.00  0.97  0.00  0.00  0.00  0.00  0.00
  WS02004403WS02004404    1.00   0.00  0.03  0.00  0.97  0.00  0.00  0.00  0.00  0.00
  WS02004404WS02004405    1.00   0.00  0.00  0.00  1.00  0.00  0.00  0.00  0.01  0.00
  WS02004405WS02004406    1.00   0.00  0.00  0.00  1.00  0.00  0.00  0.00  0.00  0.00
  WS02004406WS02004407    1.00   0.00  0.05  0.00  0.95  0.00  0.00  0.00  0.00  0.00
  WS02004407WS02004409    1.00   0.05  0.00  0.00  0.94  0.01  0.00  0.00  0.94  0.00
  WS02004409WS02004410    1.00   0.05  0.00  0.00  0.95  0.00  0.00  0.00  0.03  0.00
  WS02004410WS02004411    1.00   0.05  0.00  0.00  0.95  0.00  0.00  0.00  0.01  0.00
  WS02004411WS02004412    1.00   0.05  0.00  0.00  0.95  0.00  0.00  0.00  0.00  0.00
  WS02004412WS02004413    1.00   0.05  0.00  0.00  0.94  0.00  0.00  0.00  0.01  0.00
  WS02004413WS02003067    1.00   0.06  0.04  0.00  0.00  0.00  0.90  0.00  0.00  0.00
  WS02006109WS02006110    1.00   0.00  0.01  0.00  0.98  0.00  0.01  0.00  0.00  0.00
  WS02006110WS02006113    1.00   0.01  0.01  0.00  0.98  0.00  0.00  0.00  0.00  0.00
  WS02006111WS02006112    1.00   0.02  0.00  0.00  0.98  0.00  0.00  0.00  0.98  0.00
  WS02006112WS02006115    1.00   0.02  0.00  0.00  0.97  0.00  0.00  0.00  0.00  0.00
  WS02006113WS02006111    1.00   0.02  0.00  0.00  0.00  0.98  0.00  0.00  0.17  0.00
  WS02006115WS02006116    1.00   0.02  0.00  0.00  0.97  0.00  0.00  0.01  0.00  0.00
  WS02006116WS02004401    1.00   0.02  0.00  0.00  0.98  0.00  0.00  0.00  0.00  0.00
  WS02006228WS02006109    1.00   0.00  0.00  0.00  1.00  0.00  0.00  0.00  0.01  0.00
  WS02006229WS02006228    1.00   0.00  0.00  0.00  0.99  0.00  0.00  0.01  0.00  0.00
  WS02006230WS02006229    1.00   0.00  0.00  0.00  0.99  0.00  0.00  0.01  0.00  0.00
  WS02006231WS02006230    1.00   0.00  0.00  0.00  0.32  0.00  0.68  0.00  0.00  0.00
  WS02006232WS02006231    1.00   0.00  0.00  0.00  0.99  0.00  0.01  0.00  0.00  0.00
  WS02006234WS02006232    1.00   0.00  0.00  0.00  1.00  0.00  0.00  0.00  0.12  0.00
  WS02006235WS02006234    1.00   0.00  0.00  0.00  0.83  0.00  0.17  0.00  0.00  0.00
  WS02006238WS02006235    1.00   0.00  0.00  0.00  1.00  0.00  0.00  0.00  0.00  0.00
  WS02006239WS02006238    1.00   0.00  0.00  0.00  1.00  0.00  0.00  0.00  0.21  0.00
  WS02006240WS02006239    1.00   0.00  0.00  0.00  0.67  0.00  0.00  0.33  0.01  0.00
  WS02006242WS02006240    1.00   0.00  0.00  0.00  0.99  0.00  0.01  0.00  0.00  0.00
  WS02006243WS02006242    1.00   0.00  0.00  0.00  0.99  0.00  0.00  0.01  0.39  0.00
  WS02006245WS02006243    1.00   0.00  0.00  0.00  0.77  0.00  0.00  0.23  0.01  0.00
  WS02006247WS02006245    1.00   0.00  0.00  0.00  0.98  0.00  0.00  0.02  0.00  0.00
  WS02006248WS02006247    1.00   0.00  0.00  0.00  0.99  0.00  0.00  0.01  0.22  0.00
  WS02006249WS02006248    1.00   0.00  0.00  0.00  0.63  0.00  0.37  0.00  0.00  0.00
  WS02006251WS02006249    1.00   0.00  0.00  0.00  0.99  0.01  0.00  0.00  0.40  0.00
  WS02006252WS02006251    1.00   0.00  0.25  0.00  0.13  0.00  0.62  0.00  0.00  0.00
  WS02006256WS02006235    1.00   0.00  0.00  0.00  1.00  0.00  0.00  0.00  0.00  0.00
  WSF200WS02003060        1.00   0.00  0.13  0.00  0.24  0.63  0.00  0.00  0.37  0.00
  YS02001580YS02001583    1.00   0.26  0.53  0.00  0.21  0.00  0.00  0.00  0.62  0.00
  YS02001583YS02001586    1.00   0.40  0.33  0.00  0.26  0.00  0.00  0.00  0.62  0.00
  YS02001586YS02001590    1.00   0.13  0.00  0.00  0.46  0.04  0.00  0.37  0.38  0.00
  YS02001590YS02001593    1.00   0.13  0.01  0.00  0.14  0.00  0.73  0.00  0.00  0.00
  YS02001593YS02001596    1.00   0.13  0.00  0.00  0.15  0.01  0.00  0.70  0.02  0.00
  YS02001596YS02001600    1.00   0.13  0.00  0.00  0.22  0.01  0.00  0.63  0.05  0.00
  YS02001600YS02001601    1.00   0.13  0.01  0.00  0.86  0.00  0.00  0.00  0.58  0.00
  YS02001601YS02001602    1.00   0.13  0.01  0.00  0.87  0.00  0.00  0.00  0.00  0.00
  YS02001602YS02001605    1.00   0.13  0.00  0.00  0.87  0.00  0.00  0.00  0.00  0.00
  YS02001605YS02001607    1.00   0.14  0.00  0.00  0.86  0.00  0.00  0.00  0.00  0.00
  YS02001607YS02001610    1.00   0.13  0.01  0.00  0.86  0.00  0.00  0.00  0.01  0.00
  YS02001610YS02001613    1.00   0.13  0.00  0.00  0.87  0.00  0.00  0.00  0.00  0.00
  YS02001613YS02001616    1.00   0.13  0.00  0.00  0.87  0.00  0.00  0.00  0.00  0.00
  YS02001616YS02001619    1.00   0.13  0.00  0.00  0.87  0.00  0.00  0.00  0.00  0.00
  YS02001619YS02001622    1.00   0.13  0.00  0.00  0.87  0.00  0.00  0.00  0.27  0.00
  YS02001622YS02001625    1.00   0.13  0.00  0.00  0.87  0.00  0.00  0.00  0.04  0.00
  YS02001625YS02001629    1.00   0.13  0.04  0.00  0.18  0.00  0.64  0.00  0.00  0.00
  YS02001629YS02163301    1.00   0.15  0.01  0.00  0.84  0.00  0.00  0.00  0.00  0.00
  YS02001633YS02163601    1.00   0.00  0.01  0.00  0.99  0.00  0.00  0.00  0.15  0.00
  YS02001641YS02001644    1.00   0.00  0.01  0.00  0.99  0.00  0.00  0.00  0.00  0.00
  YS02001644YS02001647    1.00   0.00  0.17  0.00  0.83  0.00  0.00  0.00  0.00  0.00
  YS02001647YS02001649    1.00   0.00  0.17  0.00  0.55  0.28  0.00  0.00  0.54  0.00
  YS02001649YS02001757    1.00   0.00  0.00  0.00  0.82  0.18  0.00  0.00  0.39  0.00
  YS02001652YS02001649    1.00   0.00  0.00  0.00  0.97  0.03  0.00  0.00  0.72  0.00
  YS02001655YS02001652    1.00   0.00  0.00  0.00  0.22  0.01  0.00  0.77  0.06  0.00
  YS02001658YS02001655    1.00   0.00  0.14  0.00  0.68  0.18  0.00  0.00  0.67  0.00
  YS02001661YS02001658    1.00   0.14  0.00  0.00  0.51  0.35  0.00  0.00  0.68  0.00
  YS02001664YS02001661    1.00   0.13  0.00  0.00  0.78  0.10  0.00  0.00  0.84  0.00
  YS02001745YS02001748    1.00   0.00  0.00  0.00  0.12  0.00  0.00  0.88  0.04  0.00
  YS02001748YS02001751    1.00   0.00  0.00  0.00  0.84  0.16  0.00  0.00  0.72  0.00
  YS02001751YS02001754    1.00   0.00  0.00  0.00  0.19  0.01  0.00  0.80  0.04  0.00
  YS02001754YS02001757    1.00   0.00  0.00  0.00  1.00  0.00  0.00  0.00  0.79  0.00
  YS02001757CaochengTiaoxuchi    1.00   0.00  0.00  0.00  0.99  0.01  0.00  0.00  0.62  0.00
  YS02001759YS02001757    1.00   0.00  0.00  0.00  0.99  0.01  0.00  0.00  0.51  0.00
  YS02001762YS02001759    1.00   0.00  0.00  0.00  1.00  0.00  0.00  0.00  0.05  0.00
  YS02001765YS02001762    1.00   0.00  0.00  0.00  1.00  0.00  0.00  0.00  0.63  0.00
  YS02001767YS02001765    1.00   0.00  0.00  0.00  1.00  0.00  0.00  0.00  0.01  0.00
  YS02001770YS02001767    1.00   0.00  0.00  0.00  1.00  0.00  0.00  0.00  0.00  0.00
  YS02001774YS02001770    1.00   0.00  0.13  0.00  0.71  0.00  0.16  0.00  0.03  0.00
  YS02001779YS02001774    1.00   0.00  0.00  0.00  1.00  0.00  0.00  0.00  0.73  0.00
  YS02001783YS02001784    1.00   0.00  0.17  0.00  0.83  0.00  0.00  0.00  0.54  0.00
  YS02001784YS02001785    1.00   0.00  0.00  0.00  1.00  0.00  0.00  0.00  0.16  0.00
  YS02001786YS02001788    1.00   0.00  0.00  0.00  0.79  0.21  0.00  0.00  0.00  0.00
  YS02001788YS02001790    1.00   0.00  0.00  0.00  0.22  0.78  0.00  0.00  0.79  0.00
  YS02001790YS02001791    1.00   0.00  0.00  0.00  0.01  0.99  0.00  0.00  0.16  0.00
  YS02001791YS02001793    1.00   0.00  0.00  0.00  0.00  1.00  0.00  0.00  0.01  0.00
  YS02001793JiankangQianchi    1.00   0.00  0.00  0.00  0.98  0.02  0.00  0.00  0.94  0.00
  YS02001882YS02001884    1.00   0.15  0.01  0.00  0.84  0.00  0.00  0.00  0.00  0.00
  YS02001884YS02001887    1.00   0.06  0.05  0.00  0.89  0.00  0.00  0.00  0.00  0.00
  YS02001887YS02001890    1.00   0.00  0.00  0.00  0.97  0.00  0.03  0.00  0.00  0.00
  YS02001890YS02001895    1.00   0.00  0.16  0.00  0.84  0.00  0.00  0.00  0.00  0.00
  YS02001895YS02001898    1.00   0.16  0.00  0.00  0.82  0.00  0.02  0.00  0.00  0.00
  YS02001898YS02001901    1.00   0.16  0.00  0.00  0.84  0.00  0.00  0.00  0.01  0.00
  YS02001901YS02001904    1.00   0.16  0.00  0.00  0.84  0.00  0.00  0.00  0.00  0.00
  YS02001904YS02001907    1.00   0.00  0.16  0.00  0.84  0.00  0.00  0.00  0.00  0.00
  YS02001907YS02006553    1.00   0.00  0.02  0.00  0.98  0.00  0.00  0.00  0.00  0.00
  YS02001910YS02001907    1.00   0.00  0.00  0.00  0.97  0.00  0.00  0.03  0.12  0.00
  YS02001915YS02001910    1.00   0.00  0.00  0.00  0.97  0.03  0.00  0.00  0.15  0.00
  YS02001918YS02001915    1.00   0.00  0.01  0.00  0.98  0.02  0.00  0.00  0.73  0.00
  YS02001920YS02001918    1.00   0.00  0.01  0.00  0.99  0.00  0.00  0.00  0.00  0.00
  YS02001923YS02001920    1.00   0.00  0.00  0.00  1.00  0.00  0.00  0.00  0.91  0.00
  YS02001926YS02001923    1.00   0.00  0.07  0.00  0.07  0.00  0.85  0.00  0.00  0.00
  YS02001929YS02001926    1.00   0.00  0.13  0.00  0.87  0.00  0.00  0.00  0.81  0.00
  YS02006553YS02006556    1.00   0.01  0.00  0.00  0.99  0.00  0.00  0.00  0.03  0.00
  YS02006556YS02006558    1.00   0.00  0.00  0.00  1.00  0.00  0.00  0.00  0.00  0.00
  YS02006558YS02006561    1.00   0.17  0.00  0.00  0.07  0.76  0.00  0.00  0.18  0.00
  YS02006561YS02001783    1.00   0.17  0.00  0.00  0.11  0.72  0.00  0.00  0.67  0.00
  YS02163301YS02001633    1.00   0.00  0.15  0.00  0.85  0.00  0.00  0.00  0.00  0.00
  YS02163601YS02164001    1.00   0.00  0.08  0.00  0.92  0.00  0.00  0.00  0.00  0.00
  YS02164001YS02001641    1.00   0.01  0.07  0.00  0.92  0.00  0.00  0.00  0.05  0.00
  
  
  *************************
  Conduit Surcharge Summary
  *************************
  
  ----------------------------------------------------------------------------
                                                           Hours        Hours 
                         --------- Hours Full --------   Above Full   Capacity
  Conduit                Both Ends  Upstream  Dnstream   Normal Flow   Limited
  ----------------------------------------------------------------------------
  WS02003072WS02003073        0.01      0.01      0.01      1.24         0.01
  WS02004403WS02004404        0.01      0.01      0.04      0.01         0.01
  WS02004404WS02004405        0.01      0.04      0.01      4.67         0.01
  WS02004405WS02004406        0.01      0.01      0.01      0.87         0.01
  WS02006109WS02006110        0.88      0.88      2.30      0.97         0.01
  WS02006110WS02006113        0.01      0.01      2.24      0.01         0.01
  WS02006111WS02006112        0.01      0.01      2.99      0.01         0.01
  WS02006112WS02006115        0.01      0.01      0.99      0.01         0.01
  WS02006228WS02006109        2.20      2.30      2.20      3.45         2.20
  WS02006229WS02006228        2.19      2.20      2.19      2.72         2.18
  WS02006230WS02006229        2.42      2.65      2.42      4.95         2.42
  WS02006231WS02006230        0.90      0.90      1.03      4.80         0.01
  WS02006232WS02006231        0.99      0.99      2.30      1.05         0.01
  WS02006234WS02006232        2.16      2.16      2.30      1.02         1.01
  WS02006235WS02006234        1.27      1.27      2.18      4.64         0.01
  WS02006238WS02006235        2.19      2.19      2.31      0.01         0.01
  WS02006239WS02006238        2.23      2.28      2.24      2.37         1.90
  WS02006240WS02006239        2.18      2.21      2.18      2.36         1.73
  WS02006242WS02006240        2.20      2.20      2.37      2.64         0.01
  WS02006243WS02006242        2.16      2.16      2.30      0.01         0.02
  WS02006245WS02006243        2.11      2.12      2.14      1.44         1.38
  WS02006247WS02006245        2.11      2.15      2.11      4.36         2.10
  WS02006248WS02006247        2.09      2.10      2.13      0.01         0.02
  WS02006249WS02006248        2.08      2.08      2.10      4.33         0.01
  WS02006251WS02006249        2.09      2.10      2.10      2.51         2.03
  WS02006252WS02006251        2.59      2.59      2.59      2.59         0.01
  WS02006256WS02006235        4.69      4.71      6.28      1.48         0.01
  YS02001580YS02001583        0.76      0.76      0.81      0.01         0.01
  YS02001583YS02001586        0.77      0.77      0.89      0.01         0.01
  YS02001586YS02001590        0.89      0.89      0.97      0.01         0.01
  YS02001590YS02001593        0.96      0.96      0.99      0.97         0.01
  YS02001593YS02001596        0.98      0.98      1.08      0.01         0.01
  YS02001596YS02001600        1.14      1.14      1.24      0.01         0.01
  YS02001600YS02001601        1.30      1.30      1.59      0.01         0.01
  YS02001601YS02001602        1.47      1.47      1.63      1.24         0.01
  YS02001602YS02001605        1.42      1.42      1.47      2.48         0.01
  YS02001605YS02001607        1.37      1.42      1.38      1.52         1.36
  YS02001607YS02001610        0.96      0.96      0.98      0.01         0.01
  YS02001610YS02001613        0.95      0.95      0.98      0.01         0.01
  YS02001613YS02001616        0.91      0.91      0.95      0.01         0.01
  YS02001616YS02001619        0.90      0.90      0.91      0.09         0.08
  YS02001619YS02001622        0.89      0.90      0.89      0.96         0.85
  YS02001622YS02001625        0.89      0.89      1.07      0.01         0.01
  YS02001625YS02001629        0.84      0.84      1.07      0.01         0.01
  YS02001629YS02163301        1.07      1.07      1.08      0.12         0.19
  YS02001633YS02163601        1.10      1.10      1.13      0.33         0.31
  YS02001641YS02001644        1.01      1.04      1.01      1.67         0.99
  YS02001644YS02001647        0.79      0.79      1.01      0.01         0.01
  YS02001647YS02001649        0.79      0.79      0.90      0.01         0.01
  YS02001649YS02001757        0.90      0.90      0.96      0.15         0.08
  YS02001652YS02001649        0.75      0.75      0.90      0.01         0.01
  YS02001655YS02001652        0.55      0.55      0.73      0.01         0.01
  YS02001658YS02001655        0.34      0.34      0.55      0.01         0.01
  YS02001661YS02001658        0.12      0.12      0.34      0.01         0.01
  YS02001664YS02001661        0.01      0.01      0.17      0.01         0.01
  YS02001745YS02001748        0.01      0.01      0.27      0.01         0.01
  YS02001748YS02001751        0.31      0.31      0.43      0.01         0.01
  YS02001751YS02001754        0.43      0.43      0.64      0.01         0.01
  YS02001754YS02001757        0.68      0.68      0.96      0.01         0.01
  YS02001757CaochengTiaoxuchi        0.96      0.96      1.86      0.46         0.42
  YS02001759YS02001757        0.88      0.88      0.96      0.01         0.01
  YS02001762YS02001759        0.85      0.85      0.88      0.01         0.02
  YS02001765YS02001762        0.81      0.81      0.85      0.01         0.01
  YS02001767YS02001765        0.79      0.79      0.81      0.01         0.02
  YS02001770YS02001767        0.78      0.78      0.79      0.64         0.51
  YS02001774YS02001770        0.75      0.75      0.84      0.01         0.01
  YS02001779YS02001774        0.62      0.62      0.84      0.01         0.01
  YS02001783YS02001784        0.62      0.64      0.62      0.82         0.62
  YS02001784YS02001785        0.50      0.62      0.50      1.10         0.50
  YS02001786YS02001788        0.01      0.50      0.01      0.96         0.01
  YS02001790YS02001791        0.01      0.01      0.01      0.60         0.01
  YS02001793JiankangQianchi        0.01      0.01      7.54      0.01         0.01
  YS02001882YS02001884        0.58      0.58      0.59      0.01         0.01
  YS02001884YS02001887        0.62      0.62      0.63      0.01         0.01
  YS02001887YS02001890        0.65      0.65      0.66      0.18         0.01
  YS02001890YS02001895        0.57      0.57      0.68      0.01         0.01
  YS02001895YS02001898        0.56      0.56      0.57      0.01         0.01
  YS02001898YS02001901        0.57      0.57      0.62      0.01         0.01
  YS02001901YS02001904        0.61      0.61      0.62      0.01         0.01
  YS02001904YS02001907        0.61      0.61      0.94      0.01         0.01
  YS02001907YS02006553        1.12      1.12      1.19      0.01         0.01
  YS02001910YS02001907        0.68      0.68      0.92      0.07         0.07
  YS02001915YS02001910        0.58      0.58      0.68      0.01         0.01
  YS02001918YS02001915        0.49      0.49      0.58      0.01         0.01
  YS02001920YS02001918        0.49      0.49      0.50      0.01         0.01
  YS02001923YS02001920        0.44      0.44      0.50      0.01         0.01
  YS02001926YS02001923        0.19      0.19      0.22      0.01         0.01
  YS02001929YS02001926        0.09      0.09      0.22      0.01         0.01
  YS02006553YS02006556        0.79      0.79      0.93      0.01         0.01
  YS02006556YS02006558        0.87      0.87      0.96      0.01         0.01
  YS02006558YS02006561        0.52      0.77      0.52      1.05         0.52
  YS02006561YS02001783        0.45      0.45      0.64      0.01         0.01
  YS02163301YS02001633        1.08      1.08      1.12      0.01         0.01
  YS02163601YS02164001        1.04      1.04      1.13      0.12         0.01
  YS02164001YS02001641        1.04      1.04      1.04      0.71         0.65
  
  
  ***************
  Pumping Summary
  ***************
  
  ---------------------------------------------------------------------------------------------------------
                                                  Min       Avg       Max     Total     Power    % Time Off
                        Percent   Number of      Flow      Flow      Flow    Volume     Usage    Pump Curve
  Pump                 Utilized   Start-Ups       LPS       LPS       LPS  10^6 ltr     Kw-hr    Low   High
  ---------------------------------------------------------------------------------------------------------
  CC-R1                   20.70           4      0.00    683.00    683.00     4.072     76.62    0.0   19.5
  CC-R2                   17.32           5      0.00    683.00    683.00     3.407     64.48    0.0   17.8
  CC-S1                   53.32          10      0.00    200.00    200.00     3.071     18.43    0.0    0.0
  CC-S2                   34.29          14      0.00    200.00    200.00     1.975     11.59    0.0    0.0
  JK-R1                    9.04          13      0.00   1000.00   1000.00     2.604     27.99    0.0    0.0
  JK-R2                    1.56           7      0.00   1000.00   1000.00     0.450      3.61    0.0    0.0
  JK-S                    18.39          10      0.00    300.00    300.00     1.589     25.04    0.0    0.0
  

  Analysis begun on:  Wed Apr 23 23:58:40 2025
  Analysis ended on:  Wed Apr 23 23:58:42 2025
  Total elapsed time: 00:00:02