
  EPA STORM WATER MANAGEMENT MODEL - VERSION 5.2 (Build 5.2.4)
  PYSWMM TOOLKIT API - VERSION v1.0 (2023-11-27)
  ------------------------------------------------------------

  WARNING 04: minimum elevation drop used for Conduit WS02004404WS02004405
  WARNING 03: negative offset ignored for Link YS02001904YS02001907
  
  ****************
  Analysis Options
  ****************
  Flow Units ............... LPS
  Process Models:
    Rainfall/Runoff ........ YES
    RDII ................... NO
    Snowmelt ............... NO
    Groundwater ............ NO
    Flow Routing ........... YES
    Ponding Allowed ........ NO
    Water Quality .......... NO
  Infiltration Method ...... HORTON
  Flow Routing Method ...... DYNWAVE
  Surcharge Method ......... EXTRAN
  Starting Date ............ 08/28/2015 08:00:00
  Ending Date .............. 08/28/2015 16:00:00
  Antecedent Dry Days ...... 8.0
  Report Time Step ......... 00:01:00
  Wet Time Step ............ 00:01:00
  Dry Time Step ............ 00:01:00
  Routing Time Step ........ 30.00 sec
  Variable Time Step ....... YES
  Maximum Trials ........... 8
  Number of Threads ........ 4
  Head Tolerance ........... 0.001500 m
  
  
  **************************        Volume         Depth
  Runoff Quantity Continuity     hectare-m            mm
  **************************     ---------       -------
  Total Precipitation ......         2.254        67.962
  Evaporation Loss .........         0.000         0.000
  Infiltration Loss ........         0.100         3.003
  Surface Runoff ...........         2.122        63.982
  Final Storage ............         0.033         0.994
  Continuity Error (%) .....        -0.025
  
  
  **************************        Volume        Volume
  Flow Routing Continuity        hectare-m      10^6 ltr
  **************************     ---------     ---------
  Dry Weather Inflow .......         0.025         0.251
  Wet Weather Inflow .......         2.122        21.225
  Groundwater Inflow .......         0.000         0.000
  RDII Inflow ..............         0.000         0.000
  External Inflow ..........         0.083         0.834
  External Outflow .........         1.573        15.733
  Flooding Loss ............         0.720         7.205
  Evaporation Loss .........         0.000         0.000
  Exfiltration Loss ........         0.000         0.000
  Initial Stored Volume ....         0.243         2.431
  Final Stored Volume ......         0.189         1.886
  Continuity Error (%) .....        -0.340
  
  
  *************************
  Highest Continuity Errors
  *************************
  Node YS02001583 (-6.64%)
  Node YS02001884 (5.14%)
  
  
  ***************************
  Time-Step Critical Elements
  ***************************
  Link WS02006252WS02006251 (47.72%)
  Link WS02006238WS02006235 (13.12%)
  Link WS02004404WS02004405 (12.72%)
  Link WS02006235WS02006234 (7.16%)
  Link YS02001791YS02001793 (6.25%)
  
  
  ********************************
  Highest Flow Instability Indexes
  ********************************
  Link WS02006113WS02006111 (54)
  Link WS02006111WS02006112 (24)
  Link WS02006238WS02006235 (15)
  Link WS02006256WS02006235 (14)
  Link WS02006252WS02006251 (13)
  
  
  *********************************
  Most Frequent Nonconverging Nodes
  *********************************
  Node CC-1 (9.94%)
  Node CC-2 (9.94%)
  Node JK-1 (9.94%)
  Node JK-2 (9.94%)
  Node WSC (9.94%)
  
  
  *************************
  Routing Time Step Summary
  *************************
  Minimum Time Step           :     0.00 sec
  Average Time Step           :     1.88 sec
  Maximum Time Step           :     7.04 sec
  % of Time in Steady State   :     0.00
  Average Iterations per Step :     2.91
  % of Steps Not Converging   :     9.94
  Time Step Frequencies       :
     30.000 - 13.228 sec      :     0.00 %
     13.228 -  5.833 sec      :     9.42 %
      5.833 -  2.572 sec      :    14.61 %
      2.572 -  1.134 sec      :    22.67 %
      1.134 -  0.500 sec      :    53.31 %
  
  
  ***************************
  Subcatchment Runoff Summary
  ***************************
  
  ------------------------------------------------------------------------------------------------------------------------------
                            Total      Total      Total      Total     Imperv       Perv      Total       Total     Peak  Runoff
                           Precip      Runon       Evap      Infil     Runoff     Runoff     Runoff      Runoff   Runoff   Coeff
  Subcatchment                 mm         mm         mm         mm         mm         mm         mm    10^6 ltr      LPS
  ------------------------------------------------------------------------------------------------------------------------------
  sub60                     67.96       0.00       0.00       1.81      58.61       6.35      64.96        0.85   624.19   0.956
  sub61                     67.96       0.00       0.00       2.62      55.28       8.94      64.22        1.18   865.91   0.945
  sub62                     67.96       0.00       0.00       1.20      61.24       4.24      65.48        1.79  1218.11   0.963
  sub63                     67.96       0.00       0.00       4.82      47.29      14.89      62.18        1.41   972.78   0.915
  sub64                     67.96       0.00       0.00       2.44      56.56       7.76      64.32        1.55   987.04   0.946
  sub65                     67.96       0.00       0.00       2.11      57.88       6.73      64.60        1.78  1099.44   0.951
  sub66                     67.96       0.00       0.00       5.98      47.18      13.73      60.91        2.84  1430.30   0.896
  sub67                     67.96       0.00       0.00       1.16      61.29       4.28      65.57        1.22   944.45   0.965
  sub68                     67.96       0.00       0.00       2.17      57.26       7.35      64.62        1.78  1251.19   0.951
  sub69                     67.96       0.00       0.00       1.93      57.66       8.27      65.93        2.44  1463.01   0.970
  sub70                     67.96       0.00       0.00       6.45      44.69      16.65      61.35        1.77   802.16   0.903
  sub71                     67.96       0.00       0.00       1.23      61.20       4.20      65.41        1.71  1064.43   0.962
  sub72                     67.96       0.00       0.00       1.10      61.80       3.66      65.47        0.90   514.85   0.963
  
  
  ******************
  Node Depth Summary
  ******************
  
  ---------------------------------------------------------------------------------
                                 Average  Maximum  Maximum  Time of Max    Reported
                                   Depth    Depth      HGL   Occurrence   Max Depth
  Node                 Type       Meters   Meters   Meters  days hr:min      Meters
  ---------------------------------------------------------------------------------
  WS02003060           JUNCTION     0.26     0.38     5.32     0  02:43        0.38
  WS02003066           JUNCTION     0.21     0.30     5.85     0  02:35        0.30
  WS02003067           JUNCTION     0.53     0.70     6.02     0  02:35        0.70
  WS02003069           JUNCTION     0.28     0.43     5.01     0  02:37        0.43
  WS02003072           JUNCTION     0.35     0.50     4.87     0  02:37        0.50
  WS02003073           JUNCTION     0.20     0.30     4.36     0  02:38        0.30
  WS02004401           JUNCTION     0.62     0.85     6.85     0  02:33        0.85
  WS02004402           JUNCTION     0.65     0.88     6.84     0  02:33        0.88
  WS02004403           JUNCTION     0.67     0.89     6.82     0  02:33        0.89
  WS02004404           JUNCTION     0.75     0.96     6.81     0  02:33        0.96
  WS02004405           JUNCTION     0.74     0.96     6.81     0  02:33        0.96
  WS02004406           JUNCTION     0.76     0.96     6.79     0  02:33        0.96
  WS02004407           JUNCTION     0.19     0.30     6.61     0  02:34        0.30
  WS02004409           JUNCTION     0.43     0.67     6.44     0  02:34        0.67
  WS02004410           JUNCTION     0.45     0.68     6.40     0  02:34        0.68
  WS02004411           JUNCTION     0.47     0.69     6.37     0  02:34        0.69
  WS02004412           JUNCTION     0.49     0.70     6.34     0  02:35        0.70
  WS02004413           JUNCTION     0.65     0.86     6.33     0  02:35        0.86
  WS02006109           JUNCTION     0.68     1.20     7.82     0  02:46        1.20
  WS02006110           JUNCTION     0.68     1.29     7.87     0  02:46        1.29
  WS02006111           JUNCTION     0.19     0.29     6.99     0  02:49        0.29
  WS02006112           JUNCTION     0.78     1.07     6.95     0  02:22        1.06
  WS02006113           JUNCTION     0.29     0.46     7.35     0  02:58        0.46
  WS02006115           JUNCTION     0.50     0.75     6.89     0  02:32        0.75
  WS02006116           JUNCTION     0.59     0.83     6.87     0  02:32        0.83
  WS02006228           JUNCTION     0.67     1.13     7.78     0  02:46        1.13
  WS02006229           JUNCTION     0.65     1.16     7.85     0  02:55        1.10
  WS02006230           JUNCTION     0.65     1.34     8.09     0  02:55        1.18
  WS02006231           JUNCTION     0.45     1.04     8.16     0  02:55        0.93
  WS02006232           JUNCTION     0.59     1.48     8.51     0  01:55        1.16
  WS02006234           JUNCTION     0.51     1.57     8.73     0  02:45        1.21
  WS02006235           JUNCTION     0.55     1.59     8.76     0  02:45        1.32
  WS02006238           JUNCTION     0.58     1.63     8.77     0  02:45        1.36
  WS02006239           JUNCTION     0.55     1.57     8.78     0  02:45        1.36
  WS02006240           JUNCTION     0.52     1.52     8.81     0  02:45        1.32
  WS02006242           JUNCTION     0.59     1.55     8.82     0  01:55        1.38
  WS02006243           JUNCTION     0.49     1.37     8.79     0  02:45        1.26
  WS02006245           JUNCTION     0.49     1.48     8.97     0  02:00        1.48
  WS02006247           JUNCTION     0.51     1.47     8.97     0  02:00        1.47
  WS02006248           JUNCTION     0.47     1.10     8.69     0  02:00        1.10
  WS02006249           JUNCTION     0.50     1.09     8.69     0  02:00        1.09
  WS02006251           JUNCTION     0.50     1.37     9.04     0  02:00        1.14
  WS02006252           JUNCTION     0.37     1.50     9.74     0  00:00        0.69
  WS02006256           JUNCTION     0.96     2.35     9.28     0  00:00        2.35
  WSF200               JUNCTION     0.19     0.29     5.52     0  02:36        0.29
  YS02001580           JUNCTION     0.08     1.05     9.59     0  01:53        1.05
  YS02001583           JUNCTION     0.12     1.05     9.55     0  01:53        0.98
  YS02001586           JUNCTION     0.18     1.13     9.30     0  01:53        1.13
  YS02001590           JUNCTION     0.27     1.40     9.26     0  01:53        1.40
  YS02001593           JUNCTION     0.20     1.33     9.20     0  02:11        1.29
  YS02001596           JUNCTION     0.27     1.80     9.22     0  02:11        1.80
  YS02001600           JUNCTION     0.33     1.87     9.00     0  01:53        1.86
  YS02001601           JUNCTION     0.51     2.06     8.90     0  01:53        2.06
  YS02001602           JUNCTION     0.43     1.87     8.77     0  01:53        1.87
  YS02001605           JUNCTION     0.40     1.78     8.68     0  02:06        1.78
  YS02001607           JUNCTION     0.41     1.68     8.53     0  02:11        1.68
  YS02001610           JUNCTION     0.45     1.68     8.48     0  01:53        1.68
  YS02001613           JUNCTION     0.41     1.70     8.54     0  02:11        1.70
  YS02001616           JUNCTION     0.34     1.61     8.52     0  02:02        1.61
  YS02001619           JUNCTION     0.32     1.61     8.54     0  02:00        1.61
  YS02001622           JUNCTION     0.30     1.62     8.52     0  02:11        1.58
  YS02001625           JUNCTION     0.58     1.78     8.38     0  01:53        1.78
  YS02001629           JUNCTION     0.42     1.85     8.40     0  01:53        1.85
  YS02001633           JUNCTION     0.50     2.08     8.53     0  02:00        2.08
  YS02001641           JUNCTION     0.49     2.01     8.45     0  02:11        1.98
  YS02001644           JUNCTION     0.48     1.92     8.35     0  01:57        1.92
  YS02001647           JUNCTION     0.28     1.80     8.41     0  01:58        1.75
  YS02001649           JUNCTION     0.31     2.05     8.44     0  01:58        1.97
  YS02001652           JUNCTION     0.21     2.16     8.76     0  01:58        1.81
  YS02001655           JUNCTION     0.17     2.20     9.05     0  01:58        1.61
  YS02001658           JUNCTION     0.12     2.30     9.44     0  01:58        1.37
  YS02001661           JUNCTION     0.15     1.38     8.79     0  01:59        1.16
  YS02001664           JUNCTION     0.05     0.71     8.64     0  01:59        0.60
  YS02001745           JUNCTION     0.06     0.93     8.44     0  01:59        0.91
  YS02001748           JUNCTION     0.11     1.82     8.89     0  01:58        1.32
  YS02001751           JUNCTION     0.14     2.09     8.97     0  01:58        1.48
  YS02001754           JUNCTION     0.19     2.11     8.72     0  01:58        1.70
  YS02001757           JUNCTION     0.33     2.05     8.31     0  01:58        2.02
  YS02001759           JUNCTION     0.28     2.08     8.44     0  02:00        2.08
  YS02001762           JUNCTION     0.27     2.02     8.42     0  01:58        2.00
  YS02001765           JUNCTION     0.25     1.99     8.44     0  01:58        1.97
  YS02001767           JUNCTION     0.25     2.03     8.52     0  01:57        1.95
  YS02001770           JUNCTION     0.26     1.95     8.44     0  01:57        1.95
  YS02001774           JUNCTION     0.33     2.04     8.46     0  01:57        2.00
  YS02001779           JUNCTION     0.17     1.68     8.37     0  01:57        1.68
  YS02001783           JUNCTION     0.22     2.40     8.54     0  02:11        2.40
  YS02001784           JUNCTION     0.23     1.45     7.52     0  02:11        1.13
  YS02001786           JUNCTION     0.20     1.16     7.19     0  01:56        0.88
  YS02001788           JUNCTION     0.14     0.62     6.60     0  01:56        0.62
  YS02001790           JUNCTION     0.16     0.73     6.37     0  02:01        0.72
  YS02001791           JUNCTION     0.10     0.44     5.91     0  02:06        0.44
  YS02001793           JUNCTION     0.05     0.30     5.13     0  02:01        0.29
  YS02001882           JUNCTION     0.29     1.83     8.55     0  01:55        1.79
  YS02001884           JUNCTION     0.38     1.93     8.55     0  01:55        1.88
  YS02001887           JUNCTION     0.46     1.95     8.48     0  02:00        1.95
  YS02001890           JUNCTION     0.49     1.81     8.32     0  01:55        1.81
  YS02001895           JUNCTION     0.25     1.60     8.34     0  01:55        1.56
  YS02001898           JUNCTION     0.26     1.77     8.51     0  02:11        1.77
  YS02001901           JUNCTION     0.38     1.74     8.35     0  02:11        1.68
  YS02001904           JUNCTION     0.36     1.69     8.32     0  02:11        1.64
  YS02001907           JUNCTION     0.68     1.96     8.25     0  01:56        1.96
  YS02001910           JUNCTION     0.48     2.03     8.53     0  02:00        2.03
  YS02001915           JUNCTION     0.29     2.00     8.72     0  01:55        2.00
  YS02001918           JUNCTION     0.16     1.81     8.88     0  01:56        1.62
  YS02001920           JUNCTION     0.23     2.14     9.15     0  01:57        1.61
  YS02001923           JUNCTION     0.12     2.03     9.29     0  01:57        1.38
  YS02001926           JUNCTION     0.15     1.90     9.35     0  01:57        1.22
  YS02001929           JUNCTION     0.08     1.78     9.47     0  01:57        0.98
  YS02006553           JUNCTION     0.69     2.05     8.34     0  02:11        2.03
  YS02006556           JUNCTION     0.66     2.13     8.44     0  01:56        2.05
  YS02006558           JUNCTION     0.70     2.19     8.46     0  01:56        2.18
  YS02006561           JUNCTION     0.14     1.42     8.08     0  01:56        0.90
  YS02163301           JUNCTION     0.44     1.95     8.47     0  02:00        1.95
  YS02163601           JUNCTION     0.54     2.08     8.48     0  02:11        2.05
  YS02164001           JUNCTION     0.47     2.03     8.49     0  02:11        1.96
  CC-1                 OUTFALL      0.00     0.00     0.00     0  00:00        0.00
  CC-2                 OUTFALL      0.00     0.00     0.00     0  00:00        0.00
  JK-1                 OUTFALL      0.00     0.00     0.00     0  00:00        0.00
  JK-2                 OUTFALL      0.00     0.00     0.00     0  00:00        0.00
  WSC                  OUTFALL      0.20     0.30     0.97     0  02:35        0.30
  CC-storage           STORAGE      0.85     1.68     7.18     0  02:30        1.68
  JK-storage           STORAGE      2.89     4.23     5.03     0  02:01        4.21
  
  
  *******************
  Node Inflow Summary
  *******************
  
  -------------------------------------------------------------------------------------------------
                                  Maximum  Maximum                  Lateral       Total        Flow
                                  Lateral    Total  Time of Max      Inflow      Inflow     Balance
                                   Inflow   Inflow   Occurrence      Volume      Volume       Error
  Node                 Type           LPS      LPS  days hr:min    10^6 ltr    10^6 ltr     Percent
  -------------------------------------------------------------------------------------------------
  WS02003060           JUNCTION     16.53   553.03     0  02:36       0.476        6.14       0.032
  WS02003066           JUNCTION      0.00   536.46     0  02:35           0        5.66       0.022
  WS02003067           JUNCTION      0.00   536.46     0  02:35           0        5.67       0.071
  WS02003069           JUNCTION      0.32   553.30     0  02:36     0.00922        6.15       0.056
  WS02003072           JUNCTION      0.00   553.24     0  02:37           0        6.14       0.102
  WS02003073           JUNCTION      1.82   555.01     0  02:37      0.0524        6.19       0.081
  WS02004401           JUNCTION      0.00   537.97     0  02:33           0        5.76       0.171
  WS02004402           JUNCTION      0.00   537.66     0  02:33           0        5.75       0.175
  WS02004403           JUNCTION      0.00   537.32     0  02:33           0        5.74       0.171
  WS02004404           JUNCTION      0.16   537.38     0  02:33     0.00467        5.74       0.147
  WS02004405           JUNCTION      0.04   537.39     0  02:33      0.0011        5.73       0.210
  WS02004406           JUNCTION      0.00   537.45     0  02:33           0        5.72       0.355
  WS02004407           JUNCTION      0.00   537.08     0  02:34           0         5.7       0.016
  WS02004409           JUNCTION      0.00   536.88     0  02:34           0         5.7       0.040
  WS02004410           JUNCTION      0.00   536.73     0  02:34           0         5.7       0.068
  WS02004411           JUNCTION      0.00   536.65     0  02:34           0        5.69       0.090
  WS02004412           JUNCTION      0.00   536.56     0  02:35           0        5.69       0.123
  WS02004413           JUNCTION      0.00   536.56     0  02:35           0        5.68       0.221
  WS02006109           JUNCTION      1.23   556.22     0  03:16      0.0354        5.81       0.115
  WS02006110           JUNCTION      0.00   557.33     0  03:16           0         5.8       0.104
  WS02006111           JUNCTION      0.00   561.02     0  02:57           0        5.79       0.009
  WS02006112           JUNCTION      0.00   542.31     0  02:49           0        5.79       0.305
  WS02006113           JUNCTION      0.00   565.37     0  02:56           0         5.8       0.029
  WS02006115           JUNCTION      0.00   547.09     0  02:58           0        5.78       0.106
  WS02006116           JUNCTION      0.00   539.29     0  02:32           0        5.77       0.095
  WS02006228           JUNCTION      0.00   552.24     0  03:16           0        5.77       0.030
  WS02006229           JUNCTION      0.00   552.61     0  02:56           0        5.78       0.074
  WS02006230           JUNCTION     10.28   584.10     0  03:05       0.296        5.78       0.064
  WS02006231           JUNCTION      0.00   572.47     0  02:10           0        5.49       0.022
  WS02006232           JUNCTION      0.00   571.79     0  02:10           0        5.49       0.082
  WS02006234           JUNCTION      0.00   567.57     0  02:10           0        5.49      -0.101
  WS02006235           JUNCTION      0.00   561.61     0  02:10           0        5.52       0.096
  WS02006238           JUNCTION      0.00   423.66     0  02:40           0        4.68      -0.301
  WS02006239           JUNCTION      0.00   422.54     0  02:40           0        4.66      -0.248
  WS02006240           JUNCTION      0.00   419.71     0  02:05           0        4.65      -0.060
  WS02006242           JUNCTION      0.00   419.29     0  02:05           0        4.64      -0.064
  WS02006243           JUNCTION      0.00   418.91     0  03:03           0        4.63      -0.150
  WS02006245           JUNCTION      0.00   418.47     0  03:03           0        4.63       0.208
  WS02006247           JUNCTION      0.00   418.73     0  03:03           0        4.63      -0.018
  WS02006248           JUNCTION      0.00   419.04     0  03:03           0        4.63      -0.037
  WS02006249           JUNCTION      0.00   523.86     0  01:50           0        4.86       0.217
  WS02006251           JUNCTION      0.08   406.33     0  02:00     0.00222        4.86       0.039
  WS02006252           JUNCTION      0.00   400.00     0  00:00           0        4.85      -0.138
  WS02006256           JUNCTION      0.00   300.00     0  00:00           0        1.23      -0.706
  WSF200               JUNCTION      0.00   536.48     0  02:36           0        5.66       0.005
  YS02001580           JUNCTION      0.00   124.73     0  01:53           0     0.00432      -0.672
  YS02001583           JUNCTION      0.00   170.86     0  01:53           0       0.015      -6.230
  YS02001586           JUNCTION    802.16   802.16     0  02:04        1.77        1.78       0.072
  YS02001590           JUNCTION      0.00   323.54     0  02:11           0        1.34      -0.030
  YS02001593           JUNCTION      0.00   320.00     0  02:11           0        1.35       0.006
  YS02001596           JUNCTION      0.00   318.02     0  02:10           0        1.35      -0.002
  YS02001600           JUNCTION      0.00   318.15     0  02:17           0        1.35       0.014
  YS02001601           JUNCTION   1463.01  1780.67     0  02:03        2.44        3.79       0.019
  YS02001602           JUNCTION      0.00   521.35     0  01:53           0        2.27       0.020
  YS02001605           JUNCTION      0.00   520.90     0  01:53           0        2.15       0.024
  YS02001607           JUNCTION      0.00   520.34     0  01:53           0        2.15       0.085
  YS02001610           JUNCTION      0.00   798.89     0  02:04           0        2.43       0.083
  YS02001613           JUNCTION      0.00   527.72     0  01:52           0        1.94       0.087
  YS02001616           JUNCTION      0.00   522.42     0  01:53           0        1.94       0.018
  YS02001619           JUNCTION   1430.30  1430.30     0  02:03        2.84         4.5       0.000
  YS02001622           JUNCTION      0.00   983.51     0  02:02           0        4.21       0.000
  YS02001625           JUNCTION      0.00  1374.80     0  02:05           0        4.43       0.196
  YS02001629           JUNCTION      0.00   925.27     0  01:55           0        3.45       0.014
  YS02001633           JUNCTION   1099.64  1386.58     0  01:56        1.78        4.94       0.070
  YS02001641           JUNCTION      0.00  1386.66     0  01:56           0        4.66       0.061
  YS02001644           JUNCTION    987.08  1812.68     0  01:56        1.55         6.2       0.053
  YS02001647           JUNCTION      0.00  1812.68     0  01:56           0        5.65       0.010
  YS02001649           JUNCTION      0.00  2060.63     0  01:56           0        7.06       0.003
  YS02001652           JUNCTION      0.00   998.78     0  02:02           0        1.42      -0.067
  YS02001655           JUNCTION      0.15   998.61     0  02:02     0.00443        1.42      -0.092
  YS02001658           JUNCTION      0.00   998.67     0  02:02           0        1.42      -0.060
  YS02001661           JUNCTION      0.00   998.54     0  02:02           0        1.42       0.014
  YS02001664           JUNCTION    972.78   972.78     0  02:02        1.41        1.41      -0.011
  YS02001745           JUNCTION    624.19   624.19     0  02:02       0.854       0.854       0.191
  YS02001748           JUNCTION      0.04   634.27     0  02:01      0.0013       0.854      -0.257
  YS02001751           JUNCTION      0.01   634.62     0  02:01    0.000317       0.861       0.101
  YS02001754           JUNCTION      0.26   633.76     0  02:01     0.00749       0.874      -0.143
  YS02001757           JUNCTION      0.00  3438.09     0  01:59           0        10.7       0.038
  YS02001759           JUNCTION    865.95  1417.93     0  02:01        1.18        2.72      -0.009
  YS02001762           JUNCTION      0.00   802.74     0  01:58           0        1.54       0.009
  YS02001765           JUNCTION      0.00   803.50     0  01:58           0        1.54       0.015
  YS02001767           JUNCTION      0.54   805.04     0  01:58      0.0154        1.55       0.008
  YS02001770           JUNCTION   1218.26  1218.26     0  02:02         1.8        1.84      -0.010
  YS02001774           JUNCTION      0.00   703.67     0  02:02           0       0.332       0.308
  YS02001779           JUNCTION      0.01   704.09     0  02:02    0.000144       0.287      -0.134
  YS02001783           JUNCTION      0.00  1172.72     0  02:00           0        4.05       0.004
  YS02001784           JUNCTION      1.06  1173.03     0  02:00      0.0305        4.08       0.019
  YS02001786           JUNCTION      0.06  1174.26     0  02:00     0.00162        4.08       0.010
  YS02001788           JUNCTION      0.07  1175.11     0  02:00     0.00204        4.09       0.008
  YS02001790           JUNCTION      0.15  1181.18     0  01:59     0.00446        4.09       0.019
  YS02001791           JUNCTION      0.00  1296.79     0  02:01           0        4.09      -0.021
  YS02001793           JUNCTION      0.00  1248.29     0  02:05           0        4.09       0.005
  YS02001882           JUNCTION      0.00    65.87     0  01:55           0      0.0126       4.180
  YS02001884           JUNCTION      0.00    79.00     0  01:54           0      0.0487       5.418
  YS02001887           JUNCTION    944.90   945.81     0  02:01        1.23        1.27       0.333
  YS02001890           JUNCTION      0.00   945.93     0  02:01           0        1.23       0.405
  YS02001895           JUNCTION      0.00   517.42     0  02:06           0        1.08       0.161
  YS02001898           JUNCTION      0.00   517.56     0  02:06           0        1.08       0.033
  YS02001901           JUNCTION      0.00   517.85     0  02:06           0        1.08       0.322
  YS02001904           JUNCTION      0.00   517.60     0  02:06           0        1.08       0.229
  YS02001907           JUNCTION      0.00  2193.54     0  02:02           0        3.78       0.457
  YS02001910           JUNCTION      0.00  1597.64     0  02:02           0        2.69       0.262
  YS02001915           JUNCTION   1064.45  1597.23     0  02:02        1.71        2.73       0.057
  YS02001918           JUNCTION      0.00   533.80     0  02:02           0        1.05       0.016
  YS02001920           JUNCTION      2.87   532.48     0  02:02      0.0827        1.04       0.092
  YS02001923           JUNCTION      0.04   528.48     0  02:02     0.00109       0.939      -0.051
  YS02001926           JUNCTION      0.05   631.64     0  01:57      0.0015       0.917      -0.046
  YS02001929           JUNCTION    514.85   514.85     0  02:03         0.9       0.903      -0.012
  YS02006553           JUNCTION      0.00   799.12     0  02:19           0        2.32       0.510
  YS02006556           JUNCTION      0.00   799.32     0  02:19           0        2.33       0.346
  YS02006558           JUNCTION   1252.07  1252.07     0  02:02         1.8         4.1       0.091
  YS02006561           JUNCTION      0.00  1180.47     0  01:56           0        4.05       0.001
  YS02163301           JUNCTION      0.00   925.10     0  01:55           0        3.44       0.044
  YS02163601           JUNCTION      0.11  1386.99     0  01:56     0.00317        4.66       0.104
  YS02164001           JUNCTION      0.00  1386.69     0  01:56           0        4.66       0.055
  CC-1                 OUTFALL       0.00   683.00     0  00:00           0        3.59       0.000
  CC-2                 OUTFALL       0.00   683.00     0  00:00           0        3.03       0.000
  JK-1                 OUTFALL       0.00  1000.00     0  00:00           0        1.79       0.000
  JK-2                 OUTFALL       0.00  1000.00     0  00:00           0        1.13       0.000
  WSC                  OUTFALL       0.00   554.97     0  02:35           0        6.18       0.000
  CC-storage           STORAGE       0.00  3437.94     0  01:59           0        12.9      -0.230
  JK-storage           STORAGE       0.00  1296.62     0  02:05           0        4.24      -0.204
  
  
  **********************
  Node Surcharge Summary
  **********************
  
  Surcharging occurs when water rises above the top of the highest conduit.
  ---------------------------------------------------------------------
                                               Max. Height   Min. Depth
                                   Hours       Above Crown    Below Rim
  Node                 Type      Surcharged         Meters       Meters
  ---------------------------------------------------------------------
  WS02006109           JUNCTION        2.08          0.380        1.440
  WS02006110           JUNCTION        0.78          0.378        1.472
  WS02006112           JUNCTION        0.77          0.067        1.613
  WS02006228           JUNCTION        2.07          0.303        1.897
  WS02006229           JUNCTION        2.11          0.360        2.090
  WS02006230           JUNCTION        0.78          0.262        1.308
  WS02006231           JUNCTION        0.86          0.328        1.202
  WS02006232           JUNCTION        2.20          0.775        0.705
  WS02006234           JUNCTION        1.17          0.850        0.390
  WS02006235           JUNCTION        2.10          0.882        0.408
  WS02006238           JUNCTION        2.15          0.905        0.525
  WS02006239           JUNCTION        2.05          0.828        0.462
  WS02006240           JUNCTION        2.02          0.807        0.583
  WS02006242           JUNCTION        2.12          0.820        0.000
  WS02006243           JUNCTION        2.02          0.659        0.111
  WS02006245           JUNCTION        2.02          0.774        0.076
  WS02006247           JUNCTION        2.03          0.760        0.000
  WS02006248           JUNCTION        2.00          0.380        0.000
  WS02006249           JUNCTION        2.02          0.390        0.000
  WS02006251           JUNCTION        0.90          0.338        0.842
  WS02006252           JUNCTION        2.67          1.100        0.000
  WS02006256           JUNCTION        5.63          2.050        0.000
  YS02001580           JUNCTION        0.64          0.450        0.000
  YS02001583           JUNCTION        0.65          0.414        0.086
  YS02001586           JUNCTION        0.77          0.510        0.000
  YS02001590           JUNCTION        0.85          0.750        0.000
  YS02001593           JUNCTION        0.85          0.715        0.125
  YS02001596           JUNCTION        0.96          1.070        0.000
  YS02001600           JUNCTION        1.12          1.190        0.000
  YS02001601           JUNCTION        1.45          1.440        0.000
  YS02001602           JUNCTION        1.36          1.270        0.000
  YS02001605           JUNCTION        1.31          1.180        0.000
  YS02001607           JUNCTION        0.84          0.680        0.000
  YS02001610           JUNCTION        0.86          0.680        0.000
  YS02001613           JUNCTION        0.83          0.700        0.000
  YS02001616           JUNCTION        0.78          0.610        0.000
  YS02001619           JUNCTION        0.77          0.610        0.000
  YS02001622           JUNCTION        0.77          0.620        0.000
  YS02001625           JUNCTION        0.95          0.780        0.000
  YS02001629           JUNCTION        0.73          0.470        0.000
  YS02001633           JUNCTION        0.98          1.060        0.000
  YS02001641           JUNCTION        0.92          1.010        0.090
  YS02001644           JUNCTION        0.90          0.920        0.000
  YS02001647           JUNCTION        0.68          0.802        0.098
  YS02001649           JUNCTION        0.82          1.050        0.000
  YS02001652           JUNCTION        0.61          1.130        0.000
  YS02001655           JUNCTION        0.43          1.200        0.000
  YS02001658           JUNCTION        0.24          1.300        0.000
  YS02001661           JUNCTION        0.08          0.313        1.077
  YS02001748           JUNCTION        0.19          0.737        0.453
  YS02001751           JUNCTION        0.32          1.091        0.109
  YS02001754           JUNCTION        0.51          1.062        0.088
  YS02001757           JUNCTION        0.88          1.046        0.164
  YS02001759           JUNCTION        0.78          1.081        0.129
  YS02001762           JUNCTION        0.75          1.018        0.132
  YS02001765           JUNCTION        0.70          0.993        0.107
  YS02001767           JUNCTION        0.67          1.030        0.000
  YS02001770           JUNCTION        0.64          0.920        0.000
  YS02001774           JUNCTION        0.73          1.037        0.013
  YS02001779           JUNCTION        0.50          0.680        0.000
  YS02001783           JUNCTION        0.56          1.600        0.000
  YS02001784           JUNCTION        0.53          0.652        0.838
  YS02001786           JUNCTION        0.43          0.361        1.069
  YS02001882           JUNCTION        0.50          0.830        0.000
  YS02001884           JUNCTION        0.51          0.870        0.000
  YS02001887           JUNCTION        0.55          0.896        0.054
  YS02001890           JUNCTION        0.56          0.760        0.000
  YS02001895           JUNCTION        0.49          0.597        0.153
  YS02001898           JUNCTION        0.48          0.740        0.000
  YS02001901           JUNCTION        0.53          0.743        0.127
  YS02001904           JUNCTION        0.52          0.692        0.158
  YS02001907           JUNCTION        0.77          0.950        0.000
  YS02001910           JUNCTION        0.59          1.025        0.075
  YS02001915           JUNCTION        0.50          1.000        0.000
  YS02001918           JUNCTION        0.42          0.810        0.000
  YS02001920           JUNCTION        0.43          1.140        0.000
  YS02001923           JUNCTION        0.14          0.820        0.000
  YS02001926           JUNCTION        0.16          0.900        0.000
  YS02001929           JUNCTION        0.01          0.780        0.000
  YS02006553           JUNCTION        0.79          1.054        0.136
  YS02006556           JUNCTION        0.68          1.086        0.264
  YS02006558           JUNCTION        0.67          1.093        0.307
  YS02006561           JUNCTION        0.39          0.620        0.530
  YS02163301           JUNCTION        0.96          0.949        0.081
  YS02163601           JUNCTION        1.01          1.080        0.000
  YS02164001           JUNCTION        0.93          1.034        0.066
  
  
  *********************
  Node Flooding Summary
  *********************
  
  Flooding refers to all water that overflows a node, whether it ponds or not.
  --------------------------------------------------------------------------
                                                             Total   Maximum
                                 Maximum   Time of Max       Flood    Ponded
                        Hours       Rate    Occurrence      Volume     Depth
  Node                 Flooded       LPS   days hr:min    10^6 ltr    Meters
  --------------------------------------------------------------------------
  WS02006242              0.01     77.24      0  01:55       0.000     0.000
  WS02006247              0.01     13.97      0  02:00       0.000     0.000
  WS02006248              0.01     23.20      0  02:00       0.000     0.000
  WS02006249              0.88    111.97      0  02:00       0.218     0.000
  WS02006252              0.01    276.65      0  01:50       0.000     0.000
  WS02006256              1.14    293.19      0  00:00       0.400     0.000
  YS02001580              0.01    105.00      0  01:53       0.000     0.000
  YS02001586              0.52    484.68      0  02:04       0.427     0.000
  YS02001590              0.01      9.04      0  01:53       0.000     0.000
  YS02001596              0.01      0.21      0  02:11       0.000     0.000
  YS02001600              0.01     27.44      0  02:11       0.000     0.000
  YS02001601              0.70   1382.69      0  02:03       1.515     0.000
  YS02001602              0.60     61.99      0  02:12       0.121     0.000
  YS02001605              0.01      0.13      0  02:06       0.000     0.000
  YS02001607              0.01      0.18      0  02:11       0.000     0.000
  YS02001610              0.52    798.66      0  02:04       0.773     0.000
  YS02001613              0.01      1.32      0  02:11       0.000     0.000
  YS02001616              0.01     39.09      0  02:11       0.000     0.000
  YS02001619              0.01     72.46      0  02:11       0.000     0.000
  YS02001622              0.01     16.90      0  02:11       0.000     0.000
  YS02001625              0.49   1374.72      0  02:05       1.246     0.000
  YS02001629              0.14    279.85      0  02:00       0.076     0.000
  YS02001633              0.01      1.79      0  02:00       0.000     0.000
  YS02001644              0.22   1273.75      0  02:02       0.547     0.000
  YS02001649              0.01     10.71      0  01:58       0.000     0.000
  YS02001652              0.01     41.49      0  01:58       0.000     0.000
  YS02001655              0.01     99.03      0  01:58       0.000     0.000
  YS02001658              0.01    444.85      0  01:58       0.000     0.000
  YS02001767              0.01     86.76      0  01:57       0.000     0.000
  YS02001770              0.01    104.92      0  01:57       0.000     0.000
  YS02001779              0.19    703.65      0  02:02       0.268     0.000
  YS02001783              0.01     11.62      0  02:11       0.000     0.000
  YS02001882              0.01     24.15      0  01:55       0.000     0.000
  YS02001884              0.01      9.35      0  01:55       0.000     0.000
  YS02001890              0.19    431.04      0  02:01       0.143     0.000
  YS02001898              0.01      0.57      0  02:11       0.000     0.000
  YS02001907              0.37   2193.16      0  02:02       1.460     0.000
  YS02001915              0.01     86.12      0  01:55       0.000     0.000
  YS02001918              0.01    227.15      0  01:57       0.002     0.000
  YS02001920              0.01     50.80      0  01:57       0.000     0.000
  YS02001923              0.01    434.21      0  01:57       0.002     0.000
  YS02001926              0.01    529.46      0  01:57       0.001     0.000
  YS02001929              0.01    200.05      0  01:57       0.000     0.000
  YS02163601              0.01     15.51      0  02:11       0.000     0.000
  
  
  **********************
  Storage Volume Summary
  **********************
  
  ------------------------------------------------------------------------------------------------
                         Average    Avg   Evap  Exfil     Maximum    Max    Time of Max    Maximum
                          Volume   Pcnt   Pcnt   Pcnt      Volume   Pcnt     Occurrence    Outflow
  Storage Unit           1000 m³   Full   Loss   Loss     1000 m³   Full    days hr:min        LPS
  ------------------------------------------------------------------------------------------------
  CC-storage               2.361   36.8    0.0    0.0       4.695   73.2       0  02:30    1783.53
  JK-storage               0.145   49.8    0.0    0.0       0.213   73.0       0  02:01    2300.00
  
  
  ***********************
  Outfall Loading Summary
  ***********************
  
  -----------------------------------------------------------
                         Flow       Avg       Max       Total
                         Freq      Flow      Flow      Volume
  Outfall Node           Pcnt       LPS       LPS    10^6 ltr
  -----------------------------------------------------------
  CC-1                  17.75    683.00    683.00       3.593
  CC-2                  15.80    683.00    683.00       3.034
  JK-1                   6.68   1000.00   1000.00       1.792
  JK-2                   5.64   1000.00   1000.00       1.132
  WSC                   99.96    287.01    554.97       6.183
  -----------------------------------------------------------
  System                29.17   3653.01   3907.04      15.733
  
  
  ********************
  Link Flow Summary
  ********************
  
  -----------------------------------------------------------------------------
                                 Maximum  Time of Max   Maximum    Max/    Max/
                                  |Flow|   Occurrence   |Veloc|    Full    Full
  Link                 Type          LPS  days hr:min     m/sec    Flow   Depth
  -----------------------------------------------------------------------------
  1                    CONDUIT    554.97     0  02:35      2.83    0.19    0.30
  WS02003060WS02003069 CONDUIT    552.98     0  02:36      1.64    0.22    0.34
  WS02003066WSF200     CONDUIT    536.48     0  02:36      2.85    0.09    0.22
  WS02003067WS02003066 CONDUIT    536.46     0  02:35      1.21    0.17    0.42
  WS02003069WS02003072 CONDUIT    553.24     0  02:37      1.37    0.27    0.39
  WS02003072WS02003073 CONDUIT    553.19     0  02:37      1.44    1.19    0.37
  WS02004401WS02004402 CONDUIT    537.66     0  02:33      0.98    0.65    0.86
  WS02004402WS02004403 CONDUIT    537.32     0  02:33      0.97    0.77    0.88
  WS02004403WS02004404 CONDUIT    537.22     0  02:33      0.92    0.39    0.93
  WS02004404WS02004405 CONDUIT    537.36     0  02:33      1.08    5.26    0.96
  WS02004405WS02004406 CONDUIT    537.45     0  02:33      0.99    1.06    0.96
  WS02004406WS02004407 CONDUIT    537.08     0  02:34      1.04    0.24    0.63
  WS02004407WS02004409 CONDUIT    536.88     0  02:34      1.51    0.19    0.48
  WS02004409WS02004410 CONDUIT    536.73     0  02:34      0.98    0.69    0.67
  WS02004410WS02004411 CONDUIT    536.65     0  02:34      0.93    0.73    0.69
  WS02004411WS02004412 CONDUIT    536.56     0  02:35      0.92    0.76    0.69
  WS02004412WS02004413 CONDUIT    536.56     0  02:35      0.82    0.36    0.78
  WS02004413WS02003067 CONDUIT    536.46     0  02:35      1.11    0.23    0.59
  WS02006109WS02006110 CONDUIT    557.33     0  03:16      1.11    1.07    1.00
  WS02006110WS02006113 CONDUIT    565.37     0  02:56      1.37    0.51    0.78
  WS02006111WS02006112 CONDUIT    542.31     0  02:49      1.81    0.26    0.67
  WS02006112WS02006115 CONDUIT    547.09     0  02:58      0.77    0.32    0.87
  WS02006113WS02006111 CONDUIT    561.02     0  02:57      2.46    0.67    0.46
  WS02006115WS02006116 CONDUIT    539.29     0  02:32      0.97    0.69    0.76
  WS02006116WS02004401 CONDUIT    537.97     0  02:33      0.98    0.74    0.84
  WS02006228WS02006109 CONDUIT    554.99     0  03:16      1.10    2.42    1.00
  WS02006229WS02006228 CONDUIT    552.24     0  03:16      1.14    1.83    1.00
  WS02006230WS02006229 CONDUIT    552.61     0  02:56      1.44   12.30    1.00
  WS02006231WS02006230 CONDUIT    573.82     0  03:05      1.56    8.70    1.00
  WS02006232WS02006231 CONDUIT    572.47     0  02:10      1.50    1.20    1.00
  WS02006234WS02006232 CONDUIT    571.79     0  02:10      1.49    1.16    1.00
  WS02006235WS02006234 CONDUIT    567.57     0  02:10      1.47    5.99    1.00
  WS02006238WS02006235 CONDUIT    425.15     0  02:40      1.45    0.95    1.00
  WS02006239WS02006238 CONDUIT    423.66     0  02:40      1.10    1.36    1.00
  WS02006240WS02006239 CONDUIT    422.54     0  02:40      1.24    1.33    1.00
  WS02006242WS02006240 CONDUIT    419.71     0  02:05      1.13    1.67    1.00
  WS02006243WS02006242 CONDUIT    419.29     0  02:05      1.40    0.90    1.00
  WS02006245WS02006243 CONDUIT    418.91     0  03:03      1.45    1.24    1.00
  WS02006247WS02006245 CONDUIT    418.47     0  03:03      1.43    3.32    1.00
  WS02006248WS02006247 CONDUIT    418.73     0  03:03      1.44    0.91    1.00
  WS02006249WS02006248 CONDUIT    419.04     0  03:03      1.36    2.30    1.00
  WS02006251WS02006249 CONDUIT    523.86     0  01:50      2.11    1.51    1.00
  WS02006252WS02006251 CONDUIT    406.25     0  02:00     26.75    1.49    1.00
  WS02006256WS02006235 CONDUIT    288.91     0  00:00      4.23    3.06    1.00
  WSF200WS02003060     CONDUIT    536.50     0  02:36      2.06    0.12    0.28
  YS02001580YS02001583 CONDUIT    124.73     0  01:53      0.69    0.48    1.00
  YS02001583YS02001586 CONDUIT    163.90     0  01:53      0.69    0.25    1.00
  YS02001586YS02001590 CONDUIT    323.54     0  02:11      1.25    0.57    1.00
  YS02001590YS02001593 CONDUIT    320.00     0  02:11      1.13    2.01    1.00
  YS02001593YS02001596 CONDUIT    318.02     0  02:10      1.75    0.50    1.00
  YS02001596YS02001600 CONDUIT    318.15     0  02:17      1.24    0.62    1.00
  YS02001600YS02001601 CONDUIT    318.19     0  02:00      1.13    0.55    1.00
  YS02001601YS02001602 CONDUIT    521.35     0  01:53      1.84    1.88    1.00
  YS02001602YS02001605 CONDUIT    520.90     0  01:53      1.84   11.02    1.00
  YS02001605YS02001607 CONDUIT    520.34     0  01:53      1.84    2.85    1.00
  YS02001607YS02001610 CONDUIT    524.80     0  01:52      0.67    0.50    1.00
  YS02001610YS02001613 CONDUIT    527.72     0  01:52      0.67    0.61    1.00
  YS02001613YS02001616 CONDUIT    522.42     0  01:53      0.67    0.45    1.00
  YS02001616YS02001619 CONDUIT    502.56     0  01:53      0.67    0.87    1.00
  YS02001619YS02001622 CONDUIT    983.51     0  02:02      1.25    1.45    1.00
  YS02001622YS02001625 CONDUIT    983.93     0  02:02      1.25    0.53    1.00
  YS02001625YS02001629 CONDUIT    925.27     0  01:55      1.18    0.44    1.00
  YS02001629YS02163301 CONDUIT    925.10     0  01:55      1.18    1.14    1.00
  YS02001633YS02163601 CONDUIT   1386.88     0  01:56      1.77    1.46    1.00
  YS02001641YS02001644 CONDUIT   1386.65     0  01:56      1.77    4.48    1.00
  YS02001644YS02001647 CONDUIT   1812.68     0  01:56      2.31    1.06    1.00
  YS02001647YS02001649 CONDUIT   1812.94     0  01:56      2.35    0.96    1.00
  YS02001649YS02001757 CONDUIT   2052.90     0  01:56      2.61    1.25    1.00
  YS02001652YS02001649 CONDUIT    997.51     0  02:02      1.27    0.49    1.00
  YS02001655YS02001652 CONDUIT    998.78     0  02:02      1.34    0.49    1.00
  YS02001658YS02001655 CONDUIT    998.45     0  02:02      1.91    0.42    1.00
  YS02001661YS02001658 CONDUIT    998.67     0  02:02      2.35    0.39    1.00
  YS02001664YS02001661 CONDUIT    998.54     0  02:02      2.37    0.31    0.86
  YS02001745YS02001748 CONDUIT    634.23     0  02:01      2.23    0.24    0.96
  YS02001748YS02001751 CONDUIT    634.60     0  02:01      1.72    0.32    1.00
  YS02001751YS02001754 CONDUIT    633.50     0  02:01      1.44    0.31    1.00
  YS02001754YS02001757 CONDUIT    633.62     0  02:01      0.81    0.26    1.00
  YS02001757CaochengTiaoxuchi CONDUIT   3437.94     0  01:59      4.38    1.49    1.00
  YS02001759YS02001757 CONDUIT   1417.72     0  02:01      1.81    1.01    1.00
  YS02001762YS02001759 CONDUIT    801.89     0  01:58      1.02    0.92    1.00
  YS02001765YS02001762 CONDUIT    802.74     0  01:58      1.02    0.75    1.00
  YS02001767YS02001765 CONDUIT    803.50     0  01:58      1.02    1.01    1.00
  YS02001770YS02001767 CONDUIT    804.50     0  01:58      1.02    3.19    1.00
  YS02001774YS02001770 CONDUIT    703.67     0  02:02      0.90    0.45    1.00
  YS02001779YS02001774 CONDUIT    704.09     0  02:02      0.90    0.35    1.00
  YS02001783YS02001784 CONDUIT   1171.97     0  02:00      2.33    1.62    1.00
  YS02001784YS02001785 CONDUIT   1174.21     0  02:00      2.34    2.73    1.00
  YS02001786YS02001788 CONDUIT   1175.04     0  02:00      2.50    2.26    0.89
  YS02001788YS02001790 CONDUIT   1181.02     0  01:59      2.73    0.87    0.84
  YS02001790YS02001791 CONDUIT   1296.79     0  02:01      3.45    1.41    0.71
  YS02001791YS02001793 CONDUIT   1248.29     0  02:05      6.75    0.54    0.45
  YS02001793JiankangQianchi CONDUIT   1296.62     0  02:05      2.58    0.10    0.65
  YS02001882YS02001884 CONDUIT     65.87     0  01:55      0.13    0.08    1.00
  YS02001884YS02001887 CONDUIT     79.00     0  01:54      0.10    0.11    1.00
  YS02001887YS02001890 CONDUIT    945.93     0  02:01      1.20    1.62    1.00
  YS02001890YS02001895 CONDUIT    517.42     0  02:06      0.66    0.24    1.00
  YS02001895YS02001898 CONDUIT    517.56     0  02:06      0.66    0.90    1.00
  YS02001898YS02001901 CONDUIT    517.85     0  02:06      0.66    0.33    1.00
  YS02001901YS02001904 CONDUIT    517.60     0  02:06      0.66    0.80    1.00
  YS02001904YS02001907 CONDUIT    517.90     0  02:06      0.66    0.18    1.00
  YS02001907YS02006553 CONDUIT    799.12     0  02:19      0.89    0.94    1.00
  YS02001910YS02001907 CONDUIT   1597.58     0  02:02      2.03    0.90    1.00
  YS02001915YS02001910 CONDUIT   1597.64     0  02:02      2.03    0.79    1.00
  YS02001918YS02001915 CONDUIT    533.46     0  02:02      0.68    0.29    1.00
  YS02001920YS02001918 CONDUIT    533.80     0  02:02      0.68    0.52    1.00
  YS02001923YS02001920 CONDUIT    529.61     0  02:02      0.69    0.24    1.00
  YS02001926YS02001923 CONDUIT    528.44     0  02:02      0.96    0.75    1.00
  YS02001929YS02001926 CONDUIT    527.66     0  02:02      1.13    0.25    1.00
  YS02006553YS02006556 CONDUIT    799.32     0  02:19      1.02    0.68    1.00
  YS02006556YS02006558 CONDUIT    799.87     0  02:19      1.02    0.63    1.00
  YS02006558YS02006561 CONDUIT   1180.47     0  01:56      4.18    2.61    1.00
  YS02006561YS02001783 CONDUIT   1172.72     0  02:00      2.33    0.61    1.00
  YS02163301YS02001633 CONDUIT    924.97     0  01:55      1.18    0.87    1.00
  YS02163601YS02164001 CONDUIT   1386.69     0  01:56      1.77    1.23    1.00
  YS02164001YS02001641 CONDUIT   1386.66     0  01:56      1.77    1.89    1.00
  CC-R1                PUMP       683.00     0  00:00              1.00
  CC-R2                PUMP       683.00     0  00:00              1.00
  CC-S1                PUMP       200.00     0  00:00              1.00
  CC-S2                PUMP       200.00     0  00:00              1.00
  JK-R1                PUMP      1000.00     0  00:00              1.00
  JK-R2                PUMP      1000.00     0  00:00              1.00
  JK-S                 PUMP       300.00     0  00:00              1.00
  
  
  ***************************
  Flow Classification Summary
  ***************************
  
  -------------------------------------------------------------------------------------
                      Adjusted    ---------- Fraction of Time in Flow Class ---------- 
                       /Actual         Up    Down  Sub   Sup   Up    Down  Norm  Inlet 
  Conduit               Length    Dry  Dry   Dry   Crit  Crit  Crit  Crit  Ltd   Ctrl  
  -------------------------------------------------------------------------------------
  1                       1.00   0.00  0.00  0.00  0.00  1.00  0.00  0.00  0.52  0.00
  WS02003060WS02003069    1.00   0.00  0.00  0.00  0.98  0.02  0.00  0.00  0.63  0.00
  WS02003066WSF200        1.00   0.13  0.00  0.00  0.00  0.87  0.00  0.00  0.76  0.00
  WS02003067WS02003066    1.00   0.10  0.02  0.00  0.88  0.00  0.00  0.00  0.00  0.00
  WS02003069WS02003072    1.00   0.00  0.00  0.00  0.99  0.01  0.00  0.00  0.70  0.00
  WS02003072WS02003073    1.00   0.00  0.00  0.00  0.00  0.00  0.00  1.00  0.00  0.00
  WS02004401WS02004402    1.00   0.02  0.00  0.00  0.98  0.00  0.00  0.00  0.00  0.00
  WS02004402WS02004403    1.00   0.02  0.00  0.00  0.97  0.00  0.00  0.00  0.00  0.00
  WS02004403WS02004404    1.00   0.00  0.03  0.00  0.97  0.00  0.00  0.00  0.00  0.00
  WS02004404WS02004405    1.00   0.00  0.00  0.00  1.00  0.00  0.00  0.00  0.00  0.00
  WS02004405WS02004406    1.00   0.00  0.00  0.00  1.00  0.00  0.00  0.00  0.00  0.00
  WS02004406WS02004407    1.00   0.00  0.05  0.00  0.95  0.00  0.00  0.00  0.00  0.00
  WS02004407WS02004409    1.00   0.05  0.00  0.00  0.94  0.01  0.00  0.00  0.94  0.00
  WS02004409WS02004410    1.00   0.05  0.00  0.00  0.95  0.00  0.00  0.00  0.03  0.00
  WS02004410WS02004411    1.00   0.05  0.00  0.00  0.95  0.00  0.00  0.00  0.01  0.00
  WS02004411WS02004412    1.00   0.05  0.00  0.00  0.95  0.00  0.00  0.00  0.00  0.00
  WS02004412WS02004413    1.00   0.05  0.00  0.00  0.94  0.00  0.00  0.00  0.01  0.00
  WS02004413WS02003067    1.00   0.06  0.04  0.00  0.00  0.00  0.90  0.00  0.00  0.00
  WS02006109WS02006110    1.00   0.00  0.01  0.00  0.98  0.00  0.01  0.00  0.00  0.00
  WS02006110WS02006113    1.00   0.01  0.01  0.00  0.98  0.00  0.00  0.00  0.00  0.00
  WS02006111WS02006112    1.00   0.02  0.00  0.00  0.98  0.00  0.00  0.00  0.98  0.00
  WS02006112WS02006115    1.00   0.02  0.00  0.00  0.97  0.00  0.00  0.00  0.00  0.00
  WS02006113WS02006111    1.00   0.02  0.00  0.00  0.00  0.98  0.00  0.00  0.17  0.00
  WS02006115WS02006116    1.00   0.02  0.00  0.00  0.97  0.00  0.00  0.01  0.00  0.00
  WS02006116WS02004401    1.00   0.02  0.00  0.00  0.98  0.00  0.00  0.00  0.00  0.00
  WS02006228WS02006109    1.00   0.00  0.00  0.00  1.00  0.00  0.00  0.00  0.00  0.00
  WS02006229WS02006228    1.00   0.00  0.00  0.00  0.99  0.00  0.00  0.01  0.00  0.00
  WS02006230WS02006229    1.00   0.00  0.00  0.00  0.99  0.00  0.00  0.01  0.00  0.00
  WS02006231WS02006230    1.00   0.00  0.00  0.00  0.30  0.00  0.70  0.00  0.00  0.00
  WS02006232WS02006231    1.00   0.00  0.00  0.00  0.99  0.00  0.00  0.00  0.00  0.00
  WS02006234WS02006232    1.00   0.00  0.00  0.00  1.00  0.00  0.00  0.00  0.18  0.00
  WS02006235WS02006234    1.00   0.00  0.00  0.00  0.75  0.00  0.25  0.00  0.00  0.00
  WS02006238WS02006235    1.00   0.00  0.00  0.00  1.00  0.00  0.00  0.00  0.00  0.00
  WS02006239WS02006238    1.00   0.00  0.00  0.00  1.00  0.00  0.00  0.00  0.30  0.00
  WS02006240WS02006239    1.00   0.00  0.00  0.00  0.63  0.00  0.00  0.37  0.01  0.00
  WS02006242WS02006240    1.00   0.00  0.00  0.00  0.99  0.00  0.01  0.00  0.00  0.00
  WS02006243WS02006242    1.00   0.00  0.00  0.00  0.99  0.00  0.00  0.01  0.43  0.00
  WS02006245WS02006243    1.00   0.00  0.00  0.00  0.71  0.00  0.00  0.29  0.01  0.00
  WS02006247WS02006245    1.00   0.00  0.00  0.00  0.99  0.00  0.00  0.01  0.00  0.00
  WS02006248WS02006247    1.00   0.00  0.00  0.00  0.99  0.00  0.00  0.01  0.20  0.00
  WS02006249WS02006248    1.00   0.00  0.00  0.00  0.57  0.00  0.43  0.00  0.00  0.00
  WS02006251WS02006249    1.00   0.00  0.00  0.00  0.99  0.01  0.00  0.00  0.45  0.00
  WS02006252WS02006251    1.00   0.00  0.49  0.00  0.11  0.00  0.40  0.00  0.00  0.00
  WS02006256WS02006235    1.00   0.00  0.00  0.00  1.00  0.00  0.00  0.00  0.00  0.00
  WSF200WS02003060        1.00   0.00  0.13  0.00  0.29  0.58  0.00  0.00  0.38  0.00
  YS02001580YS02001583    1.00   0.23  0.57  0.00  0.20  0.00  0.00  0.00  0.66  0.00
  YS02001583YS02001586    1.00   0.42  0.33  0.00  0.25  0.00  0.00  0.00  0.66  0.00
  YS02001586YS02001590    1.00   0.13  0.00  0.00  0.43  0.04  0.00  0.40  0.36  0.00
  YS02001590YS02001593    1.00   0.13  0.01  0.00  0.12  0.00  0.75  0.00  0.00  0.00
  YS02001593YS02001596    1.00   0.13  0.00  0.00  0.14  0.01  0.00  0.72  0.02  0.00
  YS02001596YS02001600    1.00   0.14  0.00  0.00  0.20  0.01  0.00  0.65  0.04  0.00
  YS02001600YS02001601    1.00   0.13  0.01  0.00  0.86  0.00  0.00  0.00  0.60  0.00
  YS02001601YS02001602    1.00   0.13  0.01  0.00  0.87  0.00  0.00  0.00  0.00  0.00
  YS02001602YS02001605    1.00   0.13  0.00  0.00  0.86  0.00  0.00  0.00  0.00  0.00
  YS02001605YS02001607    1.00   0.14  0.00  0.00  0.86  0.00  0.00  0.00  0.00  0.00
  YS02001607YS02001610    1.00   0.13  0.01  0.00  0.86  0.00  0.00  0.00  0.01  0.00
  YS02001610YS02001613    1.00   0.13  0.00  0.00  0.87  0.00  0.00  0.00  0.00  0.00
  YS02001613YS02001616    1.00   0.13  0.00  0.00  0.87  0.00  0.00  0.00  0.00  0.00
  YS02001616YS02001619    1.00   0.13  0.00  0.00  0.87  0.00  0.00  0.00  0.00  0.00
  YS02001619YS02001622    1.00   0.13  0.00  0.00  0.87  0.00  0.00  0.00  0.29  0.00
  YS02001622YS02001625    1.00   0.13  0.00  0.00  0.87  0.00  0.00  0.00  0.04  0.00
  YS02001625YS02001629    1.00   0.13  0.05  0.00  0.17  0.00  0.66  0.00  0.00  0.00
  YS02001629YS02163301    1.00   0.15  0.01  0.00  0.84  0.00  0.00  0.00  0.00  0.00
  YS02001633YS02163601    1.00   0.00  0.01  0.00  0.99  0.00  0.00  0.00  0.15  0.00
  YS02001641YS02001644    1.00   0.00  0.01  0.00  0.99  0.00  0.00  0.00  0.00  0.00
  YS02001644YS02001647    1.00   0.00  0.17  0.00  0.83  0.00  0.00  0.00  0.00  0.00
  YS02001647YS02001649    1.00   0.00  0.17  0.00  0.56  0.27  0.00  0.00  0.56  0.00
  YS02001649YS02001757    1.00   0.00  0.00  0.00  0.84  0.16  0.00  0.00  0.41  0.00
  YS02001652YS02001649    1.00   0.00  0.00  0.00  0.97  0.03  0.00  0.00  0.73  0.00
  YS02001655YS02001652    1.00   0.00  0.00  0.00  0.19  0.01  0.00  0.80  0.05  0.00
  YS02001658YS02001655    1.00   0.00  0.14  0.00  0.67  0.19  0.00  0.00  0.67  0.00
  YS02001661YS02001658    1.00   0.14  0.00  0.00  0.51  0.35  0.00  0.00  0.69  0.00
  YS02001664YS02001661    1.00   0.13  0.00  0.00  0.77  0.10  0.00  0.00  0.85  0.00
  YS02001745YS02001748    1.00   0.00  0.00  0.00  0.10  0.01  0.00  0.89  0.05  0.00
  YS02001748YS02001751    1.00   0.00  0.00  0.00  0.83  0.17  0.00  0.00  0.76  0.00
  YS02001751YS02001754    1.00   0.00  0.00  0.00  0.17  0.01  0.00  0.82  0.04  0.00
  YS02001754YS02001757    1.00   0.00  0.00  0.00  1.00  0.00  0.00  0.00  0.81  0.00
  YS02001757CaochengTiaoxuchi    1.00   0.00  0.00  0.00  0.97  0.03  0.00  0.00  0.65  0.00
  YS02001759YS02001757    1.00   0.00  0.00  0.00  1.00  0.00  0.00  0.00  0.53  0.00
  YS02001762YS02001759    1.00   0.00  0.00  0.00  1.00  0.00  0.00  0.00  0.05  0.00
  YS02001765YS02001762    1.00   0.00  0.00  0.00  1.00  0.00  0.00  0.00  0.67  0.00
  YS02001767YS02001765    1.00   0.00  0.00  0.00  1.00  0.00  0.00  0.00  0.01  0.00
  YS02001770YS02001767    1.00   0.00  0.00  0.00  1.00  0.00  0.00  0.00  0.00  0.00
  YS02001774YS02001770    1.00   0.00  0.13  0.00  0.70  0.00  0.17  0.00  0.03  0.00
  YS02001779YS02001774    1.00   0.00  0.00  0.00  1.00  0.00  0.00  0.00  0.77  0.00
  YS02001783YS02001784    1.00   0.00  0.18  0.00  0.82  0.00  0.00  0.00  0.55  0.00
  YS02001784YS02001785    1.00   0.00  0.00  0.00  1.00  0.00  0.00  0.00  0.17  0.00
  YS02001786YS02001788    1.00   0.00  0.00  0.00  0.79  0.21  0.00  0.00  0.00  0.00
  YS02001788YS02001790    1.00   0.00  0.00  0.00  0.21  0.79  0.00  0.00  0.80  0.00
  YS02001790YS02001791    1.00   0.00  0.00  0.00  0.01  0.99  0.00  0.00  0.16  0.00
  YS02001791YS02001793    1.00   0.00  0.00  0.00  0.00  1.00  0.00  0.00  0.01  0.00
  YS02001793JiankangQianchi    1.00   0.00  0.00  0.00  0.96  0.04  0.00  0.00  0.97  0.00
  YS02001882YS02001884    1.00   0.15  0.01  0.00  0.84  0.00  0.00  0.00  0.00  0.00
  YS02001884YS02001887    1.00   0.06  0.05  0.00  0.89  0.00  0.00  0.00  0.00  0.00
  YS02001887YS02001890    1.00   0.00  0.00  0.00  0.97  0.00  0.03  0.00  0.00  0.00
  YS02001890YS02001895    1.00   0.00  0.16  0.00  0.84  0.00  0.00  0.00  0.00  0.00
  YS02001895YS02001898    1.00   0.16  0.00  0.00  0.82  0.00  0.02  0.00  0.00  0.00
  YS02001898YS02001901    1.00   0.17  0.00  0.00  0.83  0.00  0.00  0.00  0.01  0.00
  YS02001901YS02001904    1.00   0.17  0.00  0.00  0.83  0.00  0.00  0.00  0.00  0.00
  YS02001904YS02001907    1.00   0.00  0.16  0.00  0.83  0.00  0.00  0.00  0.00  0.00
  YS02001907YS02006553    1.00   0.00  0.02  0.00  0.98  0.00  0.00  0.00  0.00  0.00
  YS02001910YS02001907    1.00   0.00  0.00  0.00  0.97  0.00  0.00  0.03  0.12  0.00
  YS02001915YS02001910    1.00   0.00  0.00  0.00  0.97  0.03  0.00  0.00  0.16  0.00
  YS02001918YS02001915    1.00   0.00  0.01  0.00  0.98  0.02  0.00  0.00  0.75  0.00
  YS02001920YS02001918    1.00   0.00  0.01  0.00  0.99  0.00  0.00  0.00  0.00  0.00
  YS02001923YS02001920    1.00   0.00  0.00  0.00  1.00  0.00  0.00  0.00  0.92  0.00
  YS02001926YS02001923    1.00   0.00  0.07  0.00  0.06  0.00  0.86  0.00  0.00  0.00
  YS02001929YS02001926    1.00   0.00  0.13  0.00  0.87  0.00  0.00  0.00  0.82  0.00
  YS02006553YS02006556    1.00   0.01  0.00  0.00  0.99  0.00  0.00  0.00  0.03  0.00
  YS02006556YS02006558    1.00   0.00  0.00  0.00  1.00  0.00  0.00  0.00  0.00  0.00
  YS02006558YS02006561    1.00   0.18  0.00  0.00  0.06  0.76  0.00  0.00  0.19  0.00
  YS02006561YS02001783    1.00   0.18  0.00  0.00  0.09  0.73  0.00  0.00  0.69  0.00
  YS02163301YS02001633    1.00   0.00  0.15  0.00  0.85  0.00  0.00  0.00  0.00  0.00
  YS02163601YS02164001    1.00   0.00  0.08  0.00  0.92  0.00  0.00  0.00  0.00  0.00
  YS02164001YS02001641    1.00   0.01  0.07  0.00  0.92  0.00  0.00  0.00  0.05  0.00
  
  
  *************************
  Conduit Surcharge Summary
  *************************
  
  ----------------------------------------------------------------------------
                                                           Hours        Hours 
                         --------- Hours Full --------   Above Full   Capacity
  Conduit                Both Ends  Upstream  Dnstream   Normal Flow   Limited
  ----------------------------------------------------------------------------
  WS02003072WS02003073        0.01      0.01      0.01      1.18         0.01
  WS02004404WS02004405        0.01      0.01      0.01      4.25         0.01
  WS02004405WS02004406        0.01      0.01      0.01      0.70         0.01
  WS02006109WS02006110        0.78      0.78      2.19      0.85         0.01
  WS02006110WS02006113        0.01      0.01      2.15      0.01         0.01
  WS02006111WS02006112        0.01      0.01      2.77      0.01         0.01
  WS02006112WS02006115        0.01      0.01      0.77      0.01         0.01
  WS02006228WS02006109        2.08      2.19      2.08      3.22         2.08
  WS02006229WS02006228        2.06      2.11      2.06      2.67         2.06
  WS02006230WS02006229        2.27      2.56      2.27      4.57         2.27
  WS02006231WS02006230        0.78      0.78      0.89      4.40         0.01
  WS02006232WS02006231        0.86      0.86      2.20      0.90         0.01
  WS02006234WS02006232        2.01      2.02      2.20      0.89         0.88
  WS02006235WS02006234        1.17      1.17      2.09      4.26         0.01
  WS02006238WS02006235        2.11      2.11      2.21      0.01         0.01
  WS02006239WS02006238        2.14      2.18      2.15      2.46         1.87
  WS02006240WS02006239        2.01      2.04      2.05      2.46         1.75
  WS02006242WS02006240        2.02      2.02      2.25      2.78         0.01
  WS02006243WS02006242        2.03      2.03      2.12      0.01         0.03
  WS02006245WS02006243        2.02      2.03      2.02      1.70         1.34
  WS02006247WS02006245        2.02      2.05      2.02      4.04         2.01
  WS02006248WS02006247        2.01      2.01      2.03      0.01         0.03
  WS02006249WS02006248        2.00      2.00      2.02      4.00         0.01
  WS02006251WS02006249        2.02      2.03      2.02      2.58         1.97
  WS02006252WS02006251        2.67      2.67      2.67      2.68         0.01
  WS02006256WS02006235        4.32      4.35      5.60      1.14         0.01
  YS02001580YS02001583        0.64      0.64      0.69      0.01         0.01
  YS02001583YS02001586        0.65      0.65      0.77      0.01         0.01
  YS02001586YS02001590        0.78      0.78      0.85      0.01         0.01
  YS02001590YS02001593        0.85      0.85      0.87      0.89         0.01
  YS02001593YS02001596        0.86      0.86      0.96      0.01         0.01
  YS02001596YS02001600        1.01      1.01      1.12      0.01         0.01
  YS02001600YS02001601        1.18      1.18      1.45      0.01         0.01
  YS02001601YS02001602        1.36      1.36      1.49      1.12         0.01
  YS02001602YS02001605        1.31      1.31      1.36      2.27         0.01
  YS02001605YS02001607        1.27      1.31      1.27      1.42         1.27
  YS02001607YS02001610        0.84      0.84      0.86      0.01         0.01
  YS02001610YS02001613        0.83      0.83      0.86      0.01         0.01
  YS02001613YS02001616        0.78      0.78      0.83      0.01         0.01
  YS02001616YS02001619        0.77      0.77      0.78      0.01         0.04
  YS02001619YS02001622        0.77      0.77      0.77      0.85         0.73
  YS02001622YS02001625        0.77      0.77      0.95      0.01         0.01
  YS02001625YS02001629        0.73      0.73      0.95      0.01         0.01
  YS02001629YS02163301        0.95      0.95      0.96      0.12         0.17
  YS02001633YS02163601        0.98      0.98      1.01      0.34         0.32
  YS02001641YS02001644        0.90      0.92      0.90      1.52         0.88
  YS02001644YS02001647        0.68      0.68      0.90      0.04         0.01
  YS02001647YS02001649        0.68      0.68      0.82      0.01         0.01
  YS02001649YS02001757        0.81      0.82      0.88      0.08         0.05
  YS02001652YS02001649        0.64      0.64      0.82      0.01         0.01
  YS02001655YS02001652        0.43      0.43      0.61      0.01         0.01
  YS02001658YS02001655        0.24      0.24      0.43      0.01         0.01
  YS02001661YS02001658        0.08      0.08      0.24      0.01         0.01
  YS02001664YS02001661        0.01      0.01      0.12      0.01         0.01
  YS02001745YS02001748        0.01      0.01      0.19      0.01         0.01
  YS02001748YS02001751        0.21      0.21      0.31      0.01         0.01
  YS02001751YS02001754        0.31      0.31      0.51      0.01         0.01
  YS02001754YS02001757        0.55      0.55      0.88      0.01         0.01
  YS02001757CaochengTiaoxuchi        0.84      0.88      1.87      0.39         0.31
  YS02001759YS02001757        0.78      0.78      0.88      0.01         0.03
  YS02001762YS02001759        0.75      0.75      0.78      0.01         0.02
  YS02001765YS02001762        0.70      0.70      0.75      0.01         0.01
  YS02001767YS02001765        0.67      0.67      0.70      0.01         0.02
  YS02001770YS02001767        0.66      0.66      0.67      0.55         0.46
  YS02001774YS02001770        0.64      0.64      0.73      0.01         0.01
  YS02001779YS02001774        0.50      0.50      0.73      0.01         0.01
  YS02001783YS02001784        0.53      0.56      0.53      0.70         0.53
  YS02001784YS02001785        0.43      0.53      0.43      0.94         0.43
  YS02001786YS02001788        0.01      0.43      0.01      0.80         0.01
  YS02001790YS02001791        0.01      0.01      0.01      0.52         0.01
  YS02001793JiankangQianchi        0.01      0.01      7.47      0.01         0.01
  YS02001882YS02001884        0.50      0.50      0.51      0.01         0.01
  YS02001884YS02001887        0.53      0.53      0.55      0.01         0.01
  YS02001887YS02001890        0.56      0.56      0.57      0.14         0.01
  YS02001890YS02001895        0.49      0.49      0.59      0.01         0.01
  YS02001895YS02001898        0.48      0.48      0.49      0.01         0.01
  YS02001898YS02001901        0.50      0.50      0.53      0.01         0.01
  YS02001901YS02001904        0.52      0.52      0.53      0.01         0.01
  YS02001904YS02001907        0.52      0.52      0.79      0.01         0.01
  YS02001907YS02006553        0.95      0.95      1.02      0.01         0.01
  YS02001910YS02001907        0.59      0.59      0.77      0.01         0.01
  YS02001915YS02001910        0.50      0.50      0.59      0.01         0.01
  YS02001918YS02001915        0.42      0.42      0.50      0.01         0.01
  YS02001920YS02001918        0.42      0.42      0.43      0.01         0.01
  YS02001923YS02001920        0.38      0.38      0.43      0.01         0.01
  YS02001926YS02001923        0.14      0.14      0.16      0.01         0.01
  YS02001929YS02001926        0.01      0.01      0.16      0.01         0.01
  YS02006553YS02006556        0.68      0.68      0.79      0.01         0.01
  YS02006556YS02006558        0.73      0.73      0.80      0.01         0.01
  YS02006558YS02006561        0.45      0.67      0.45      0.89         0.45
  YS02006561YS02001783        0.39      0.39      0.56      0.01         0.01
  YS02163301YS02001633        0.96      0.96      1.00      0.01         0.01
  YS02163601YS02164001        0.93      0.93      1.01      0.07         0.01
  YS02164001YS02001641        0.92      0.93      0.92      0.71         0.66
  
  
  ***************
  Pumping Summary
  ***************
  
  ---------------------------------------------------------------------------------------------------------
                                                  Min       Avg       Max     Total     Power    % Time Off
                        Percent   Number of      Flow      Flow      Flow    Volume     Usage    Pump Curve
  Pump                 Utilized   Start-Ups       LPS       LPS       LPS  10^6 ltr     Kw-hr    Low   High
  ---------------------------------------------------------------------------------------------------------
  CC-R1                   18.27           4      0.00    683.00    683.00     3.595     67.52    0.0   10.8
  CC-R2                   15.42           3      0.00    683.00    683.00     3.033     56.96    0.0   18.9
  CC-S1                   46.65          13      0.00    200.00    200.00     2.687     16.20    0.0    0.0
  CC-S2                   37.52          16      0.00    200.00    200.00     2.161     12.99    0.0    0.0
  JK-R1                    6.22          12      0.00   1000.00   1000.00     1.793     17.97    0.0    0.0
  JK-R2                    3.93           7      0.00   1000.00   1000.00     1.132     11.23    0.0    0.0
  JK-S                    14.19          13      0.00    300.00    300.00     1.226     18.94    0.0    0.0
  

  Analysis begun on:  Wed Apr 23 23:59:34 2025
  Analysis ended on:  Wed Apr 23 23:59:35 2025
  Total elapsed time: 00:00:01