
  EPA STORM WATER MANAGEMENT MODEL - VERSION 5.2 (Build 5.2.4)
  PYSWMM TOOLKIT API - VERSION v1.0 (2023-11-27)
  ------------------------------------------------------------

  WARNING 04: minimum elevation drop used for Conduit WS02004404WS02004405
  WARNING 03: negative offset ignored for Link YS02001904YS02001907
  
  ****************
  Analysis Options
  ****************
  Flow Units ............... LPS
  Process Models:
    Rainfall/Runoff ........ YES
    RDII ................... NO
    Snowmelt ............... NO
    Groundwater ............ NO
    Flow Routing ........... YES
    Ponding Allowed ........ NO
    Water Quality .......... NO
  Infiltration Method ...... HORTON
  Flow Routing Method ...... DYNWAVE
  Surcharge Method ......... EXTRAN
  Starting Date ............ 08/28/2015 08:00:00
  Ending Date .............. 08/28/2015 16:00:00
  Antecedent Dry Days ...... 8.0
  Report Time Step ......... 00:01:00
  Wet Time Step ............ 00:01:00
  Dry Time Step ............ 00:01:00
  Routing Time Step ........ 30.00 sec
  Variable Time Step ....... YES
  Maximum Trials ........... 8
  Number of Threads ........ 4
  Head Tolerance ........... 0.001500 m
  
  
  **************************        Volume         Depth
  Runoff Quantity Continuity     hectare-m            mm
  **************************     ---------       -------
  Total Precipitation ......         2.689        81.080
  Evaporation Loss .........         0.000         0.000
  Infiltration Loss ........         0.100         3.015
  Surface Runoff ...........         2.557        77.092
  Final Storage ............         0.033         0.994
  Continuity Error (%) .....        -0.028
  
  
  **************************        Volume        Volume
  Flow Routing Continuity        hectare-m      10^6 ltr
  **************************     ---------     ---------
  Dry Weather Inflow .......         0.025         0.251
  Wet Weather Inflow .......         2.558        25.583
  Groundwater Inflow .......         0.000         0.000
  RDII Inflow ..............         0.000         0.000
  External Inflow ..........         0.083         0.834
  External Outflow .........         1.709        17.091
  Flooding Loss ............         1.024        10.239
  Evaporation Loss .........         0.000         0.000
  Exfiltration Loss ........         0.000         0.000
  Initial Stored Volume ....         0.243         2.431
  Final Stored Volume ......         0.185         1.854
  Continuity Error (%) .....        -0.294
  
  
  *************************
  Highest Continuity Errors
  *************************
  Node YS02001583 (-7.26%)
  Node YS02001884 (4.94%)
  
  
  ***************************
  Time-Step Critical Elements
  ***************************
  Link WS02006252WS02006251 (53.18%)
  Link WS02006238WS02006235 (12.48%)
  Link WS02004404WS02004405 (10.50%)
  Link WS02006235WS02006234 (7.50%)
  Link YS02001791YS02001793 (5.47%)
  
  
  ********************************
  Highest Flow Instability Indexes
  ********************************
  Link WS02006113WS02006111 (53)
  Link WS02006111WS02006112 (24)
  Link WS02006238WS02006235 (14)
  Link WS02006256WS02006235 (11)
  Link WS02006252WS02006251 (11)
  
  
  *********************************
  Most Frequent Nonconverging Nodes
  *********************************
  Node CC-1 (9.65%)
  Node CC-2 (9.65%)
  Node JK-1 (9.65%)
  Node JK-2 (9.65%)
  Node WSC (9.65%)
  
  
  *************************
  Routing Time Step Summary
  *************************
  Minimum Time Step           :     0.01 sec
  Average Time Step           :     1.73 sec
  Maximum Time Step           :     7.04 sec
  % of Time in Steady State   :     0.00
  Average Iterations per Step :     2.90
  % of Steps Not Converging   :     9.65
  Time Step Frequencies       :
     30.000 - 13.228 sec      :     0.00 %
     13.228 -  5.833 sec      :     7.08 %
      5.833 -  2.572 sec      :    14.02 %
      2.572 -  1.134 sec      :    20.90 %
      1.134 -  0.500 sec      :    58.01 %
  
  
  ***************************
  Subcatchment Runoff Summary
  ***************************
  
  ------------------------------------------------------------------------------------------------------------------------------
                            Total      Total      Total      Total     Imperv       Perv      Total       Total     Peak  Runoff
                           Precip      Runon       Evap      Infil     Runoff     Runoff     Runoff      Runoff   Runoff   Coeff
  Subcatchment                 mm         mm         mm         mm         mm         mm         mm    10^6 ltr      LPS
  ------------------------------------------------------------------------------------------------------------------------------
  sub60                     81.08       0.00       0.00       1.82      70.16       7.91      78.07        1.03   747.45   0.963
  sub61                     81.08       0.00       0.00       2.63      66.17      11.16      77.33        1.42  1036.27   0.954
  sub62                     81.08       0.00       0.00       1.21      73.32       5.28      78.59        2.15  1445.22   0.969
  sub63                     81.08       0.00       0.00       4.84      56.60      18.68      75.28        1.71  1152.95   0.929
  sub64                     81.08       0.00       0.00       2.45      67.72       9.72      77.44        1.86  1179.77   0.955
  sub65                     81.08       0.00       0.00       2.12      69.29       8.42      77.72        2.14  1316.60   0.959
  sub66                     81.08       0.00       0.00       5.99      56.50      17.53      74.02        3.45  1710.42   0.913
  sub67                     81.08       0.00       0.00       1.17      73.36       5.32      78.68        1.46  1119.82   0.970
  sub68                     81.08       0.00       0.00       2.18      68.55       9.17      77.73        2.14  1489.04   0.959
  sub69                     81.08       0.00       0.00       1.94      68.81      10.23      79.04        2.93  1752.10   0.975
  sub70                     81.08       0.00       0.00       6.48      53.35      21.09      74.44        2.15   958.43   0.918
  sub71                     81.08       0.00       0.00       1.24      73.27       5.25      78.52        2.05  1275.74   0.968
  sub72                     81.08       0.00       0.00       1.10      74.01       4.57      78.58        1.08   613.87   0.969
  
  
  ******************
  Node Depth Summary
  ******************
  
  ---------------------------------------------------------------------------------
                                 Average  Maximum  Maximum  Time of Max    Reported
                                   Depth    Depth      HGL   Occurrence   Max Depth
  Node                 Type       Meters   Meters   Meters  days hr:min      Meters
  ---------------------------------------------------------------------------------
  WS02003060           JUNCTION     0.25     0.38     5.32     0  02:35        0.38
  WS02003066           JUNCTION     0.21     0.30     5.85     0  02:35        0.30
  WS02003067           JUNCTION     0.53     0.70     6.02     0  02:34        0.70
  WS02003069           JUNCTION     0.28     0.43     5.01     0  02:36        0.43
  WS02003072           JUNCTION     0.35     0.50     4.87     0  02:37        0.50
  WS02003073           JUNCTION     0.20     0.30     4.36     0  02:37        0.30
  WS02004401           JUNCTION     0.62     0.85     6.85     0  02:35        0.85
  WS02004402           JUNCTION     0.65     0.88     6.84     0  02:35        0.88
  WS02004403           JUNCTION     0.67     0.89     6.82     0  02:35        0.89
  WS02004404           JUNCTION     0.75     0.96     6.81     0  02:35        0.96
  WS02004405           JUNCTION     0.75     0.96     6.81     0  02:35        0.96
  WS02004406           JUNCTION     0.76     0.96     6.79     0  02:36        0.96
  WS02004407           JUNCTION     0.19     0.30     6.61     0  02:36        0.30
  WS02004409           JUNCTION     0.43     0.67     6.44     0  02:36        0.67
  WS02004410           JUNCTION     0.45     0.68     6.40     0  02:36        0.68
  WS02004411           JUNCTION     0.47     0.69     6.37     0  02:37        0.69
  WS02004412           JUNCTION     0.49     0.70     6.34     0  02:37        0.70
  WS02004413           JUNCTION     0.65     0.86     6.33     0  02:34        0.86
  WS02006109           JUNCTION     0.69     1.12     7.73     0  02:03        0.98
  WS02006110           JUNCTION     0.69     1.14     7.73     0  02:41        0.93
  WS02006111           JUNCTION     0.19     0.29     6.99     0  02:47        0.29
  WS02006112           JUNCTION     0.78     1.07     6.96     0  02:30        1.06
  WS02006113           JUNCTION     0.30     0.46     7.35     0  02:43        0.46
  WS02006115           JUNCTION     0.51     0.75     6.89     0  02:35        0.75
  WS02006116           JUNCTION     0.59     0.83     6.87     0  02:35        0.83
  WS02006228           JUNCTION     0.68     1.16     7.81     0  02:40        1.02
  WS02006229           JUNCTION     0.66     1.20     7.89     0  02:40        1.03
  WS02006230           JUNCTION     0.66     1.40     8.14     0  02:40        1.16
  WS02006231           JUNCTION     0.46     1.24     8.36     0  02:05        0.92
  WS02006232           JUNCTION     0.60     1.37     8.41     0  02:05        1.14
  WS02006234           JUNCTION     0.52     1.48     8.64     0  02:10        1.17
  WS02006235           JUNCTION     0.56     1.55     8.71     0  02:40        1.26
  WS02006238           JUNCTION     0.59     1.60     8.74     0  02:40        1.30
  WS02006239           JUNCTION     0.56     1.64     8.85     0  02:40        1.28
  WS02006240           JUNCTION     0.52     1.61     8.90     0  02:40        1.24
  WS02006242           JUNCTION     0.59     1.55     8.82     0  02:40        1.31
  WS02006243           JUNCTION     0.50     1.45     8.87     0  02:40        1.19
  WS02006245           JUNCTION     0.49     1.36     8.85     0  02:40        1.16
  WS02006247           JUNCTION     0.52     1.31     8.81     0  02:19        1.31
  WS02006248           JUNCTION     0.47     1.10     8.69     0  02:05        1.09
  WS02006249           JUNCTION     0.50     1.09     8.69     0  01:53        1.09
  WS02006251           JUNCTION     0.50     1.54     9.21     0  02:40        1.13
  WS02006252           JUNCTION     0.37     1.50     9.74     0  00:00        0.74
  WS02006256           JUNCTION     1.04     2.35     9.28     0  00:00        2.35
  WSF200               JUNCTION     0.18     0.29     5.52     0  02:35        0.29
  YS02001580           JUNCTION     0.09     1.05     9.59     0  01:43        0.79
  YS02001583           JUNCTION     0.13     1.14     9.64     0  01:42        1.14
  YS02001586           JUNCTION     0.20     1.13     9.30     0  01:42        1.13
  YS02001590           JUNCTION     0.29     1.40     9.26     0  01:40        1.40
  YS02001593           JUNCTION     0.23     1.34     9.21     0  01:43        1.34
  YS02001596           JUNCTION     0.31     1.75     9.17     0  02:19        1.75
  YS02001600           JUNCTION     0.37     1.87     9.00     0  01:42        1.87
  YS02001601           JUNCTION     0.55     2.06     8.90     0  01:41        2.06
  YS02001602           JUNCTION     0.46     1.87     8.77     0  01:42        1.87
  YS02001605           JUNCTION     0.43     1.78     8.68     0  01:42        1.78
  YS02001607           JUNCTION     0.43     1.65     8.50     0  02:11        1.65
  YS02001610           JUNCTION     0.48     1.68     8.48     0  01:42        1.68
  YS02001613           JUNCTION     0.43     1.70     8.54     0  01:42        1.67
  YS02001616           JUNCTION     0.36     1.61     8.52     0  01:42        1.61
  YS02001619           JUNCTION     0.34     1.61     8.54     0  01:42        1.61
  YS02001622           JUNCTION     0.33     1.62     8.52     0  01:42        1.58
  YS02001625           JUNCTION     0.60     1.78     8.38     0  01:42        1.78
  YS02001629           JUNCTION     0.45     1.85     8.40     0  01:42        1.85
  YS02001633           JUNCTION     0.53     2.07     8.52     0  01:44        2.03
  YS02001641           JUNCTION     0.51     1.97     8.40     0  01:46        1.94
  YS02001644           JUNCTION     0.51     1.92     8.35     0  01:46        1.92
  YS02001647           JUNCTION     0.30     1.81     8.42     0  01:46        1.79
  YS02001649           JUNCTION     0.34     2.05     8.44     0  01:46        2.05
  YS02001652           JUNCTION     0.24     2.16     8.76     0  01:46        2.07
  YS02001655           JUNCTION     0.19     2.20     9.05     0  01:46        1.95
  YS02001658           JUNCTION     0.14     2.30     9.44     0  01:46        1.68
  YS02001661           JUNCTION     0.17     2.46     9.86     0  01:46        1.26
  YS02001664           JUNCTION     0.06     1.52     9.45     0  01:47        0.76
  YS02001745           JUNCTION     0.08     2.35     9.87     0  01:46        1.88
  YS02001748           JUNCTION     0.13     2.27     9.35     0  01:46        2.27
  YS02001751           JUNCTION     0.16     2.20     9.08     0  01:46        2.19
  YS02001754           JUNCTION     0.22     2.20     8.81     0  01:46        2.16
  YS02001757           JUNCTION     0.37     2.21     8.47     0  01:46        2.21
  YS02001759           JUNCTION     0.31     2.21     8.57     0  01:46        2.19
  YS02001762           JUNCTION     0.30     2.15     8.55     0  01:46        2.14
  YS02001765           JUNCTION     0.28     2.10     8.55     0  01:46        2.08
  YS02001767           JUNCTION     0.28     2.03     8.52     0  01:46        2.02
  YS02001770           JUNCTION     0.29     1.95     8.44     0  01:45        1.95
  YS02001774           JUNCTION     0.36     2.00     8.42     0  01:46        2.00
  YS02001779           JUNCTION     0.20     1.68     8.37     0  01:45        1.68
  YS02001783           JUNCTION     0.24     1.56     7.70     0  01:44        1.38
  YS02001784           JUNCTION     0.25     1.29     7.36     0  01:45        1.23
  YS02001786           JUNCTION     0.21     1.18     7.21     0  01:45        0.87
  YS02001788           JUNCTION     0.15     0.62     6.60     0  01:45        0.62
  YS02001790           JUNCTION     0.18     0.72     6.37     0  01:45        0.71
  YS02001791           JUNCTION     0.11     0.44     5.91     0  01:53        0.44
  YS02001793           JUNCTION     0.06     0.29     5.12     0  02:06        0.29
  YS02001882           JUNCTION     0.31     1.83     8.55     0  01:43        1.67
  YS02001884           JUNCTION     0.40     1.91     8.53     0  01:43        1.77
  YS02001887           JUNCTION     0.48     1.94     8.48     0  01:43        1.86
  YS02001890           JUNCTION     0.51     1.81     8.32     0  01:43        1.81
  YS02001895           JUNCTION     0.27     1.74     8.48     0  01:43        1.57
  YS02001898           JUNCTION     0.28     1.77     8.51     0  01:43        1.56
  YS02001901           JUNCTION     0.40     1.85     8.46     0  01:43        1.67
  YS02001904           JUNCTION     0.38     1.78     8.41     0  01:44        1.78
  YS02001907           JUNCTION     0.71     1.96     8.25     0  01:44        1.96
  YS02001910           JUNCTION     0.51     2.03     8.54     0  01:44        2.03
  YS02001915           JUNCTION     0.31     2.00     8.72     0  01:44        2.00
  YS02001918           JUNCTION     0.17     1.81     8.88     0  01:44        1.65
  YS02001920           JUNCTION     0.25     2.09     9.10     0  01:45        1.72
  YS02001923           JUNCTION     0.14     2.03     9.29     0  01:45        1.50
  YS02001926           JUNCTION     0.17     1.90     9.35     0  01:45        1.34
  YS02001929           JUNCTION     0.10     1.78     9.47     0  01:45        1.10
  YS02006553           JUNCTION     0.71     2.08     8.36     0  01:44        2.08
  YS02006556           JUNCTION     0.68     2.18     8.49     0  01:45        2.18
  YS02006558           JUNCTION     0.73     2.23     8.50     0  01:45        2.23
  YS02006561           JUNCTION     0.15     1.42     8.08     0  01:44        1.10
  YS02163301           JUNCTION     0.47     1.95     8.47     0  01:44        1.92
  YS02163601           JUNCTION     0.57     2.06     8.46     0  01:46        2.03
  YS02164001           JUNCTION     0.50     1.98     8.43     0  01:46        1.94
  CC-1                 OUTFALL      0.00     0.00     0.00     0  00:00        0.00
  CC-2                 OUTFALL      0.00     0.00     0.00     0  00:00        0.00
  JK-1                 OUTFALL      0.00     0.00     0.00     0  00:00        0.00
  JK-2                 OUTFALL      0.00     0.00     0.00     0  00:00        0.00
  WSC                  OUTFALL      0.20     0.30     0.97     0  02:38        0.30
  CC-storage           STORAGE      0.85     1.72     7.22     0  02:25        1.72
  JK-storage           STORAGE      2.92     4.23     5.03     0  02:10        4.18
  
  
  *******************
  Node Inflow Summary
  *******************
  
  -------------------------------------------------------------------------------------------------
                                  Maximum  Maximum                  Lateral       Total        Flow
                                  Lateral    Total  Time of Max      Inflow      Inflow     Balance
                                   Inflow   Inflow   Occurrence      Volume      Volume       Error
  Node                 Type           LPS      LPS  days hr:min    10^6 ltr    10^6 ltr     Percent
  -------------------------------------------------------------------------------------------------
  WS02003060           JUNCTION     16.53   553.03     0  02:35       0.476        6.56       0.031
  WS02003066           JUNCTION      0.00   536.37     0  02:35           0        6.08       0.021
  WS02003067           JUNCTION      0.00   536.34     0  02:34           0        6.09       0.066
  WS02003069           JUNCTION      0.32   553.27     0  02:35     0.00922        6.56       0.054
  WS02003072           JUNCTION      0.00   553.14     0  02:36           0        6.56       0.098
  WS02003073           JUNCTION      1.82   554.89     0  02:37      0.0524        6.61       0.078
  WS02004401           JUNCTION      0.00   538.04     0  02:35           0        6.18       0.160
  WS02004402           JUNCTION      0.00   537.54     0  02:35           0        6.17       0.163
  WS02004403           JUNCTION      0.00   537.67     0  02:35           0        6.16       0.160
  WS02004404           JUNCTION      0.16   537.19     0  02:35     0.00467        6.16       0.141
  WS02004405           JUNCTION      0.04   537.35     0  02:35      0.0011        6.15       0.193
  WS02004406           JUNCTION      0.00   537.75     0  02:35           0        6.14       0.332
  WS02004407           JUNCTION      0.00   537.08     0  02:36           0        6.12       0.016
  WS02004409           JUNCTION      0.00   536.82     0  02:36           0        6.12       0.038
  WS02004410           JUNCTION      0.00   536.67     0  02:36           0        6.11       0.065
  WS02004411           JUNCTION      0.00   536.60     0  02:37           0        6.11       0.085
  WS02004412           JUNCTION      0.00   536.49     0  02:34           0        6.11       0.116
  WS02004413           JUNCTION      0.00   536.43     0  02:37           0         6.1       0.207
  WS02006109           JUNCTION      1.23   557.51     0  02:41      0.0354        6.23       0.126
  WS02006110           JUNCTION      0.00   557.70     0  02:40           0        6.22       0.100
  WS02006111           JUNCTION      0.00   561.49     0  03:39           0        6.21       0.008
  WS02006112           JUNCTION      0.00   543.01     0  02:47           0        6.21       0.281
  WS02006113           JUNCTION      0.00   567.14     0  02:03           0        6.21       0.029
  WS02006115           JUNCTION      0.00   551.96     0  02:06           0        6.19       0.100
  WS02006116           JUNCTION      0.00   538.75     0  02:34           0        6.19       0.086
  WS02006228           JUNCTION      0.00   555.74     0  02:41           0        6.19       0.028
  WS02006229           JUNCTION      0.00   555.81     0  02:41           0         6.2       0.068
  WS02006230           JUNCTION     10.28   590.53     0  02:10       0.296         6.2       0.041
  WS02006231           JUNCTION      0.00   570.72     0  02:03           0        5.91       0.022
  WS02006232           JUNCTION      0.00   570.11     0  02:03           0        5.91       0.112
  WS02006234           JUNCTION      0.00   566.25     0  02:03           0         5.9      -0.131
  WS02006235           JUNCTION      0.00   561.24     0  02:03           0        5.96       0.111
  WS02006238           JUNCTION      0.00   422.12     0  01:55           0        4.92      -0.151
  WS02006239           JUNCTION      0.00   421.71     0  01:55           0        4.89      -0.151
  WS02006240           JUNCTION      0.00   419.85     0  01:55           0        4.87      -0.034
  WS02006242           JUNCTION      0.00   419.61     0  01:55           0        4.86      -0.023
  WS02006243           JUNCTION      0.00   418.75     0  01:55           0        4.84      -0.137
  WS02006245           JUNCTION      0.00   418.96     0  01:55           0        4.84       0.204
  WS02006247           JUNCTION      0.00   418.24     0  01:55           0        4.84       0.009
  WS02006248           JUNCTION      0.00   418.01     0  01:55           0        4.85       0.009
  WS02006249           JUNCTION      0.00   459.02     0  00:00           0        5.09       0.142
  WS02006251           JUNCTION      0.08   407.31     0  01:53     0.00222        5.09       0.028
  WS02006252           JUNCTION      0.00   400.00     0  00:00           0        5.08      -0.115
  WS02006256           JUNCTION      0.00   300.00     0  00:00           0        1.51      -0.652
  WSF200               JUNCTION      0.00   536.39     0  02:35           0        6.08       0.005
  YS02001580           JUNCTION      0.00   128.50     0  01:42           0     0.00464       2.882
  YS02001583           JUNCTION      0.00   215.11     0  01:42           0      0.0154      -6.769
  YS02001586           JUNCTION    958.43   958.43     0  01:53        2.15        2.16       0.059
  YS02001590           JUNCTION      0.00   318.29     0  02:04           0        1.48      -0.033
  YS02001593           JUNCTION      0.00   318.12     0  02:21           0        1.48      -0.003
  YS02001596           JUNCTION      0.00   318.02     0  01:55           0        1.48      -0.012
  YS02001600           JUNCTION      0.00   318.18     0  02:04           0        1.48       0.003
  YS02001601           JUNCTION   1752.10  2069.66     0  01:51        2.93        4.41      -0.003
  YS02001602           JUNCTION      0.00   546.15     0  01:42           0        2.41       0.011
  YS02001605           JUNCTION      0.00   546.31     0  01:42           0        2.26       0.023
  YS02001607           JUNCTION      0.00   546.52     0  01:42           0        2.26       0.080
  YS02001610           JUNCTION      0.00   950.60     0  01:53           0        2.75       0.068
  YS02001613           JUNCTION      0.00   614.65     0  01:53           0        2.14       0.065
  YS02001616           JUNCTION      0.00   614.55     0  01:53           0        2.14       0.019
  YS02001619           JUNCTION   1710.42  1710.42     0  01:52        3.45        5.09      -0.003
  YS02001622           JUNCTION      0.00  1053.78     0  01:53           0        4.58      -0.003
  YS02001625           JUNCTION      0.00  1490.40     0  01:54           0         4.9       0.170
  YS02001629           JUNCTION      0.00   945.06     0  01:42           0        3.67       0.010
  YS02001633           JUNCTION   1316.80  1431.44     0  01:44        2.15        5.35       0.061
  YS02001641           JUNCTION      0.00  1429.71     0  01:44           0         4.9       0.054
  YS02001644           JUNCTION   1179.81  1885.22     0  01:44        1.86        6.76       0.034
  YS02001647           JUNCTION      0.00  1885.69     0  01:44           0        5.82       0.006
  YS02001649           JUNCTION      0.00  2210.01     0  01:44           0        7.54      -0.000
  YS02001652           JUNCTION      0.00  1174.01     0  01:50           0        1.71      -0.073
  YS02001655           JUNCTION      0.15  1174.86     0  01:50     0.00443        1.71      -0.031
  YS02001658           JUNCTION      0.00  1173.79     0  01:50           0        1.71      -0.066
  YS02001661           JUNCTION      0.00  1173.70     0  01:50           0        1.71       0.022
  YS02001664           JUNCTION   1152.95  1152.95     0  01:50        1.71        1.71      -0.012
  YS02001745           JUNCTION    747.46   747.46     0  01:50        1.03        1.03       0.165
  YS02001748           JUNCTION      0.04   765.21     0  01:50      0.0013        1.03      -0.318
  YS02001751           JUNCTION      0.01   765.96     0  01:50    0.000317        1.04       0.090
  YS02001754           JUNCTION      0.26   766.42     0  01:50     0.00749        1.05      -0.206
  YS02001757           JUNCTION      0.00  3612.30     0  01:49           0        11.7       0.045
  YS02001759           JUNCTION   1036.31  1526.17     0  01:49        1.42        3.13      -0.012
  YS02001762           JUNCTION      0.00   860.09     0  01:46           0         1.7      -0.003
  YS02001765           JUNCTION      0.00   861.42     0  01:46           0         1.7      -0.004
  YS02001767           JUNCTION      0.54   861.82     0  01:46      0.0154         1.7       0.001
  YS02001770           JUNCTION   1445.37  1445.37     0  01:50        2.16         2.2      -0.017
  YS02001774           JUNCTION      0.00   850.89     0  01:52           0       0.511       0.159
  YS02001779           JUNCTION      0.01   850.35     0  01:52    0.000144       0.465      -0.227
  YS02001783           JUNCTION      0.00  1171.83     0  01:48           0        4.42       0.004
  YS02001784           JUNCTION      1.06  1172.85     0  01:47      0.0305        4.45       0.010
  YS02001786           JUNCTION      0.06  1173.03     0  01:48     0.00162        4.45       0.015
  YS02001788           JUNCTION      0.07  1172.90     0  01:48     0.00204        4.45       0.007
  YS02001790           JUNCTION      0.15  1177.83     0  01:51     0.00446        4.46       0.038
  YS02001791           JUNCTION      0.00  1287.49     0  01:56           0        4.45      -0.040
  YS02001793           JUNCTION      0.00  1247.65     0  01:46           0        4.46       0.007
  YS02001882           JUNCTION      0.00    65.68     0  01:43           0      0.0129       4.099
  YS02001884           JUNCTION      0.00   110.66     0  01:43           0      0.0488       5.194
  YS02001887           JUNCTION   1120.27  1120.52     0  01:50        1.48        1.51       0.287
  YS02001890           JUNCTION      0.00  1120.67     0  01:50           0        1.47       0.324
  YS02001895           JUNCTION      0.00   517.06     0  01:56           0        1.22       0.138
  YS02001898           JUNCTION      0.00   517.14     0  01:57           0        1.21      -0.003
  YS02001901           JUNCTION      0.00   517.18     0  01:56           0        1.22       0.268
  YS02001904           JUNCTION      0.00   517.14     0  01:55           0        1.22       0.214
  YS02001907           JUNCTION      0.00  2716.03     0  01:51           0        4.51       0.373
  YS02001910           JUNCTION      0.00  1889.96     0  01:51           0        3.21       0.219
  YS02001915           JUNCTION   1275.76  1889.73     0  01:51        2.05        3.26       0.045
  YS02001918           JUNCTION      0.00   618.84     0  01:51           0        1.24      -0.001
  YS02001920           JUNCTION      2.87   618.37     0  01:52      0.0827        1.22       0.067
  YS02001923           JUNCTION      0.04   614.76     0  01:52     0.00109        1.12      -0.068
  YS02001926           JUNCTION      0.05   817.02     0  01:45      0.0015         1.1      -0.070
  YS02001929           JUNCTION    613.87   702.00     0  01:45        1.08        1.09      -0.076
  YS02006553           JUNCTION      0.00   796.90     0  02:12           0        2.47       0.475
  YS02006556           JUNCTION      0.00   796.29     0  02:12           0        2.48       0.311
  YS02006558           JUNCTION   1489.92  1489.92     0  01:50        2.17        4.54       0.076
  YS02006561           JUNCTION      0.00  1172.17     0  01:48           0        4.42      -0.000
  YS02163301           JUNCTION      0.00   932.88     0  01:44           0        3.66       0.033
  YS02163601           JUNCTION      0.11  1431.21     0  01:44     0.00317         4.9       0.097
  YS02164001           JUNCTION      0.00  1430.68     0  01:44           0        4.89       0.039
  CC-1                 OUTFALL       0.00   683.00     0  00:00           0        3.95       0.000
  CC-2                 OUTFALL       0.00   683.00     0  00:00           0        3.51       0.000
  JK-1                 OUTFALL       0.00  1000.00     0  00:00           0        2.18       0.000
  JK-2                 OUTFALL       0.00  1000.00     0  00:00           0       0.851       0.000
  WSC                  OUTFALL       0.00   554.85     0  02:38           0         6.6       0.000
  CC-storage           STORAGE       0.00  3612.14     0  01:49           0        13.9      -0.227
  JK-storage           STORAGE       0.00  1278.95     0  01:52           0        4.61      -0.251
  
  
  **********************
  Node Surcharge Summary
  **********************
  
  Surcharging occurs when water rises above the top of the highest conduit.
  ---------------------------------------------------------------------
                                               Max. Height   Min. Depth
                                   Hours       Above Crown    Below Rim
  Node                 Type      Surcharged         Meters       Meters
  ---------------------------------------------------------------------
  WS02006109           JUNCTION        2.18          0.296        1.524
  WS02006110           JUNCTION        0.83          0.232        1.618
  WS02006112           JUNCTION        0.85          0.072        1.608
  WS02006228           JUNCTION        2.17          0.330        1.870
  WS02006229           JUNCTION        2.22          0.399        2.051
  WS02006230           JUNCTION        0.84          0.316        1.254
  WS02006231           JUNCTION        0.93          0.528        1.002
  WS02006232           JUNCTION        2.36          0.673        0.807
  WS02006234           JUNCTION        1.17          0.764        0.476
  WS02006235           JUNCTION        2.20          0.836        0.454
  WS02006238           JUNCTION        2.27          0.880        0.550
  WS02006239           JUNCTION        2.13          0.899        0.391
  WS02006240           JUNCTION        2.15          0.899        0.491
  WS02006242           JUNCTION        2.29          0.820        0.000
  WS02006243           JUNCTION        2.15          0.743        0.027
  WS02006245           JUNCTION        2.15          0.653        0.197
  WS02006247           JUNCTION        2.19          0.597        0.163
  WS02006248           JUNCTION        2.14          0.380        0.000
  WS02006249           JUNCTION        2.16          0.390        0.000
  WS02006251           JUNCTION        0.98          0.510        0.670
  WS02006252           JUNCTION        2.69          1.100        0.000
  WS02006256           JUNCTION        6.31          2.050        0.000
  YS02001580           JUNCTION        0.76          0.450        0.000
  YS02001583           JUNCTION        0.77          0.500        0.000
  YS02001586           JUNCTION        0.90          0.510        0.000
  YS02001590           JUNCTION        0.98          0.750        0.000
  YS02001593           JUNCTION        0.99          0.725        0.115
  YS02001596           JUNCTION        1.09          1.022        0.048
  YS02001600           JUNCTION        1.24          1.190        0.000
  YS02001601           JUNCTION        1.57          1.440        0.000
  YS02001602           JUNCTION        1.48          1.270        0.000
  YS02001605           JUNCTION        1.44          1.180        0.000
  YS02001607           JUNCTION        0.97          0.652        0.028
  YS02001610           JUNCTION        1.00          0.680        0.000
  YS02001613           JUNCTION        0.96          0.700        0.000
  YS02001616           JUNCTION        0.92          0.610        0.000
  YS02001619           JUNCTION        0.91          0.610        0.000
  YS02001622           JUNCTION        0.91          0.620        0.000
  YS02001625           JUNCTION        1.09          0.780        0.000
  YS02001629           JUNCTION        0.86          0.470        0.000
  YS02001633           JUNCTION        1.12          1.048        0.012
  YS02001641           JUNCTION        1.07          0.965        0.135
  YS02001644           JUNCTION        1.05          0.920        0.000
  YS02001647           JUNCTION        0.84          0.813        0.087
  YS02001649           JUNCTION        0.98          1.050        0.000
  YS02001652           JUNCTION        0.75          1.130        0.000
  YS02001655           JUNCTION        0.56          1.200        0.000
  YS02001658           JUNCTION        0.31          1.300        0.000
  YS02001661           JUNCTION        0.12          1.390        0.000
  YS02001664           JUNCTION        0.01          0.522        0.788
  YS02001745           JUNCTION        0.01          1.350        0.000
  YS02001748           JUNCTION        0.25          1.190        0.000
  YS02001751           JUNCTION        0.41          1.200        0.000
  YS02001754           JUNCTION        0.65          1.150        0.000
  YS02001757           JUNCTION        1.05          1.210        0.000
  YS02001759           JUNCTION        0.95          1.210        0.000
  YS02001762           JUNCTION        0.91          1.150        0.000
  YS02001765           JUNCTION        0.86          1.100        0.000
  YS02001767           JUNCTION        0.82          1.030        0.000
  YS02001770           JUNCTION        0.79          0.920        0.000
  YS02001774           JUNCTION        0.89          1.003        0.047
  YS02001779           JUNCTION        0.64          0.680        0.000
  YS02001783           JUNCTION        0.65          0.762        0.838
  YS02001784           JUNCTION        0.62          0.494        0.996
  YS02001786           JUNCTION        0.52          0.379        1.051
  YS02001882           JUNCTION        0.59          0.830        0.000
  YS02001884           JUNCTION        0.60          0.851        0.019
  YS02001887           JUNCTION        0.64          0.888        0.062
  YS02001890           JUNCTION        0.65          0.760        0.000
  YS02001895           JUNCTION        0.58          0.737        0.013
  YS02001898           JUNCTION        0.58          0.740        0.000
  YS02001901           JUNCTION        0.62          0.851        0.019
  YS02001904           JUNCTION        0.61          0.783        0.067
  YS02001907           JUNCTION        0.85          0.950        0.000
  YS02001910           JUNCTION        0.68          1.034        0.066
  YS02001915           JUNCTION        0.59          1.000        0.000
  YS02001918           JUNCTION        0.51          0.810        0.000
  YS02001920           JUNCTION        0.52          1.092        0.048
  YS02001923           JUNCTION        0.20          0.820        0.000
  YS02001926           JUNCTION        0.23          0.900        0.000
  YS02001929           JUNCTION        0.09          0.780        0.000
  YS02006553           JUNCTION        0.87          1.079        0.111
  YS02006556           JUNCTION        0.77          1.141        0.209
  YS02006558           JUNCTION        0.76          1.129        0.271
  YS02006561           JUNCTION        0.47          0.623        0.527
  YS02163301           JUNCTION        1.10          0.953        0.077
  YS02163601           JUNCTION        1.15          1.059        0.021
  YS02164001           JUNCTION        1.07          0.975        0.125
  
  
  *********************
  Node Flooding Summary
  *********************
  
  Flooding refers to all water that overflows a node, whether it ponds or not.
  --------------------------------------------------------------------------
                                                             Total   Maximum
                                 Maximum   Time of Max       Flood    Ponded
                        Hours       Rate    Occurrence      Volume     Depth
  Node                 Flooded       LPS   days hr:min    10^6 ltr    Meters
  --------------------------------------------------------------------------
  WS02006242              0.01      7.57      0  02:40       0.000     0.000
  WS02006248              0.01     19.05      0  02:10       0.000     0.000
  WS02006249              0.96    102.83      0  01:53       0.236     0.000
  WS02006252              0.01    245.63      0  00:00       0.000     0.000
  WS02006256              1.39    293.19      0  00:00       0.462     0.000
  YS02001580              0.01    104.65      0  01:43       0.000     0.000
  YS02001583              0.01    175.67      0  01:42       0.000     0.000
  YS02001586              0.64    640.60      0  01:53       0.672     0.000
  YS02001590              0.01     58.70      0  01:40       0.000     0.000
  YS02001600              0.01      2.39      0  01:42       0.000     0.000
  YS02001601              0.82   1671.60      0  01:51       2.001     0.000
  YS02001602              0.73     61.97      0  01:53       0.148     0.000
  YS02001605              0.01      2.76      0  01:42       0.000     0.000
  YS02001610              0.64    950.54      0  01:53       1.109     0.000
  YS02001613              0.01      5.12      0  01:42       0.000     0.000
  YS02001616              0.03     19.59      0  01:42       0.000     0.000
  YS02001619              0.08     74.58      0  01:42       0.009     0.000
  YS02001622              0.01    199.55      0  01:42       0.000     0.000
  YS02001625              0.61   1490.33      0  01:54       1.674     0.000
  YS02001629              0.19    427.72      0  01:49       0.152     0.000
  YS02001644              0.28   1731.97      0  01:50       0.920     0.000
  YS02001649              0.01    143.49      0  01:47       0.001     0.000
  YS02001652              0.01     48.05      0  01:46       0.000     0.000
  YS02001655              0.01     47.15      0  01:46       0.000     0.000
  YS02001658              0.01    525.44      0  01:46       0.001     0.000
  YS02001661              0.01    145.66      0  01:46       0.000     0.000
  YS02001745              0.01    174.69      0  01:46       0.000     0.000
  YS02001748              0.01    418.96      0  01:46       0.001     0.000
  YS02001751              0.01     46.08      0  01:46       0.000     0.000
  YS02001754              0.01     53.33      0  01:46       0.000     0.000
  YS02001757              0.01     12.16      0  01:47       0.000     0.000
  YS02001759              0.01      4.05      0  01:46       0.000     0.000
  YS02001762              0.01     14.06      0  01:46       0.000     0.000
  YS02001765              0.01      7.84      0  01:46       0.000     0.000
  YS02001767              0.01      3.58      0  01:46       0.000     0.000
  YS02001770              0.08    246.62      0  01:45       0.025     0.000
  YS02001779              0.25    850.12      0  01:52       0.446     0.000
  YS02001882              0.01     34.70      0  01:43       0.000     0.000
  YS02001890              0.23    605.37      0  01:50       0.250     0.000
  YS02001898              0.01     27.94      0  01:43       0.000     0.000
  YS02001907              0.45   2715.99      0  01:51       2.119     0.000
  YS02001915              0.01    213.47      0  01:44       0.000     0.000
  YS02001918              0.01    179.12      0  01:45       0.003     0.000
  YS02001923              0.01    236.42      0  01:45       0.001     0.000
  YS02001926              0.01    663.04      0  01:45       0.003     0.000
  YS02001929              0.01    290.23      0  01:45       0.002     0.000
  
  
  **********************
  Storage Volume Summary
  **********************
  
  ------------------------------------------------------------------------------------------------
                         Average    Avg   Evap  Exfil     Maximum    Max    Time of Max    Maximum
                          Volume   Pcnt   Pcnt   Pcnt      Volume   Pcnt     Occurrence    Outflow
  Storage Unit           1000 m³   Full   Loss   Loss     1000 m³   Full    days hr:min        LPS
  ------------------------------------------------------------------------------------------------
  CC-storage               2.369   37.0    0.0    0.0       4.790   74.7       0  02:25    1783.53
  JK-storage               0.147   50.3    0.0    0.0       0.213   72.9       0  02:10    2300.00
  
  
  ***********************
  Outfall Loading Summary
  ***********************
  
  -----------------------------------------------------------
                         Flow       Avg       Max       Total
                         Freq      Flow      Flow      Volume
  Outfall Node           Pcnt       LPS       LPS    10^6 ltr
  -----------------------------------------------------------
  CC-1                  20.09    683.00    683.00       3.949
  CC-2                  18.17    683.00    683.00       3.513
  JK-1                   7.75   1000.00   1000.00       2.177
  JK-2                   3.73   1000.00   1000.00       0.851
  WSC                   99.96    284.19    554.85       6.600
  -----------------------------------------------------------
  System                29.94   3650.19   3920.76      17.090
  
  
  ********************
  Link Flow Summary
  ********************
  
  -----------------------------------------------------------------------------
                                 Maximum  Time of Max   Maximum    Max/    Max/
                                  |Flow|   Occurrence   |Veloc|    Full    Full
  Link                 Type          LPS  days hr:min     m/sec    Flow   Depth
  -----------------------------------------------------------------------------
  1                    CONDUIT    554.85     0  02:38      2.83    0.19    0.30
  WS02003060WS02003069 CONDUIT    552.95     0  02:35      1.64    0.22    0.34
  WS02003066WSF200     CONDUIT    536.39     0  02:35      2.85    0.09    0.22
  WS02003067WS02003066 CONDUIT    536.37     0  02:35      1.21    0.17    0.42
  WS02003069WS02003072 CONDUIT    553.14     0  02:36      1.37    0.27    0.39
  WS02003072WS02003073 CONDUIT    553.07     0  02:37      1.43    1.19    0.37
  WS02004401WS02004402 CONDUIT    537.54     0  02:35      0.98    0.65    0.86
  WS02004402WS02004403 CONDUIT    537.67     0  02:35      0.97    0.77    0.88
  WS02004403WS02004404 CONDUIT    537.02     0  02:35      0.92    0.39    0.93
  WS02004404WS02004405 CONDUIT    537.31     0  02:35      1.08    5.26    0.96
  WS02004405WS02004406 CONDUIT    537.75     0  02:35      0.99    1.06    0.96
  WS02004406WS02004407 CONDUIT    537.08     0  02:36      1.04    0.24    0.63
  WS02004407WS02004409 CONDUIT    536.82     0  02:36      1.46    0.19    0.48
  WS02004409WS02004410 CONDUIT    536.67     0  02:36      0.96    0.69    0.67
  WS02004410WS02004411 CONDUIT    536.60     0  02:37      0.93    0.73    0.69
  WS02004411WS02004412 CONDUIT    536.49     0  02:34      0.92    0.76    0.69
  WS02004412WS02004413 CONDUIT    536.43     0  02:37      0.82    0.36    0.78
  WS02004413WS02003067 CONDUIT    536.34     0  02:34      1.11    0.23    0.59
  WS02006109WS02006110 CONDUIT    557.70     0  02:40      1.11    1.07    1.00
  WS02006110WS02006113 CONDUIT    567.14     0  02:03      1.37    0.52    0.79
  WS02006111WS02006112 CONDUIT    543.01     0  02:47      1.81    0.26    0.67
  WS02006112WS02006115 CONDUIT    551.96     0  02:06      0.79    0.33    0.87
  WS02006113WS02006111 CONDUIT    561.49     0  03:39      2.46    0.67    0.46
  WS02006115WS02006116 CONDUIT    538.75     0  02:34      0.97    0.69    0.76
  WS02006116WS02004401 CONDUIT    538.04     0  02:35      0.98    0.74    0.84
  WS02006228WS02006109 CONDUIT    556.28     0  02:41      1.11    2.43    1.00
  WS02006229WS02006228 CONDUIT    555.74     0  02:41      1.14    1.84    1.00
  WS02006230WS02006229 CONDUIT    555.81     0  02:41      1.44   12.37    1.00
  WS02006231WS02006230 CONDUIT    580.25     0  02:10      1.57    8.80    1.00
  WS02006232WS02006231 CONDUIT    570.72     0  02:03      1.49    1.20    1.00
  WS02006234WS02006232 CONDUIT    570.11     0  02:03      1.48    1.15    1.00
  WS02006235WS02006234 CONDUIT    566.25     0  02:03      1.47    5.97    1.00
  WS02006238WS02006235 CONDUIT    421.97     0  01:55      1.45    0.94    1.00
  WS02006239WS02006238 CONDUIT    422.12     0  01:55      1.10    1.35    1.00
  WS02006240WS02006239 CONDUIT    421.71     0  01:55      1.24    1.33    1.00
  WS02006242WS02006240 CONDUIT    419.85     0  01:55      1.13    1.67    1.00
  WS02006243WS02006242 CONDUIT    419.61     0  01:55      1.40    0.90    1.00
  WS02006245WS02006243 CONDUIT    418.75     0  01:55      1.45    1.24    1.00
  WS02006247WS02006245 CONDUIT    418.96     0  01:55      1.43    3.32    1.00
  WS02006248WS02006247 CONDUIT    418.24     0  01:55      1.44    0.91    1.00
  WS02006249WS02006248 CONDUIT    418.01     0  01:55      1.36    2.29    1.00
  WS02006251WS02006249 CONDUIT    459.02     0  00:00      1.99    1.32    1.00
  WS02006252WS02006251 CONDUIT    407.24     0  01:53     24.61    1.49    1.00
  WS02006256WS02006235 CONDUIT    288.91     0  00:00      4.23    3.06    1.00
  WSF200WS02003060     CONDUIT    536.50     0  02:35      2.06    0.12    0.28
  YS02001580YS02001583 CONDUIT    128.50     0  01:42      0.79    0.50    1.00
  YS02001583YS02001586 CONDUIT    177.49     0  01:42      0.79    0.27    1.00
  YS02001586YS02001590 CONDUIT    318.29     0  02:04      1.26    0.56    1.00
  YS02001590YS02001593 CONDUIT    318.12     0  02:21      1.13    2.00    1.00
  YS02001593YS02001596 CONDUIT    318.02     0  01:55      1.75    0.50    1.00
  YS02001596YS02001600 CONDUIT    318.18     0  02:04      1.24    0.62    1.00
  YS02001600YS02001601 CONDUIT    318.64     0  02:04      1.13    0.55    1.00
  YS02001601YS02001602 CONDUIT    546.15     0  01:42      1.93    1.97    1.00
  YS02001602YS02001605 CONDUIT    546.31     0  01:42      1.93   11.56    1.00
  YS02001605YS02001607 CONDUIT    546.52     0  01:42      1.93    3.00    1.00
  YS02001607YS02001610 CONDUIT    545.16     0  01:42      0.69    0.52    1.00
  YS02001610YS02001613 CONDUIT    614.47     0  01:53      0.78    0.71    1.00
  YS02001613YS02001616 CONDUIT    614.65     0  01:53      0.78    0.53    1.00
  YS02001616YS02001619 CONDUIT    614.55     0  01:53      0.78    1.07    1.00
  YS02001619YS02001622 CONDUIT   1053.78     0  01:53      1.34    1.55    1.00
  YS02001622YS02001625 CONDUIT   1053.64     0  01:53      1.34    0.56    1.00
  YS02001625YS02001629 CONDUIT    945.06     0  01:42      1.21    0.45    1.00
  YS02001629YS02163301 CONDUIT    932.88     0  01:44      1.19    1.15    1.00
  YS02001633YS02163601 CONDUIT   1431.10     0  01:44      1.82    1.50    1.00
  YS02001641YS02001644 CONDUIT   1429.80     0  01:44      1.82    4.62    1.00
  YS02001644YS02001647 CONDUIT   1885.69     0  01:44      2.42    1.11    1.00
  YS02001647YS02001649 CONDUIT   1893.93     0  01:44      2.41    1.00    1.00
  YS02001649YS02001757 CONDUIT   2198.54     0  01:44      2.80    1.33    1.00
  YS02001652YS02001649 CONDUIT   1174.40     0  01:50      1.50    0.58    1.00
  YS02001655YS02001652 CONDUIT   1174.01     0  01:50      1.49    0.57    1.00
  YS02001658YS02001655 CONDUIT   1174.71     0  01:50      1.98    0.50    1.00
  YS02001661YS02001658 CONDUIT   1173.79     0  01:50      2.40    0.46    1.00
  YS02001664YS02001661 CONDUIT   1173.70     0  01:50      2.47    0.37    1.00
  YS02001745YS02001748 CONDUIT    765.17     0  01:50      2.32    0.29    1.00
  YS02001748YS02001751 CONDUIT    765.95     0  01:50      1.80    0.39    1.00
  YS02001751YS02001754 CONDUIT    766.16     0  01:50      1.54    0.37    1.00
  YS02001754YS02001757 CONDUIT    765.84     0  01:50      0.98    0.31    1.00
  YS02001757CaochengTiaoxuchi CONDUIT   3612.14     0  01:49      4.72    1.56    1.00
  YS02001759YS02001757 CONDUIT   1526.40     0  01:49      1.94    1.08    1.00
  YS02001762YS02001759 CONDUIT    859.37     0  01:46      1.09    0.99    1.00
  YS02001765YS02001762 CONDUIT    860.09     0  01:46      1.10    0.81    1.00
  YS02001767YS02001765 CONDUIT    861.42     0  01:46      1.10    1.08    1.00
  YS02001770YS02001767 CONDUIT    861.28     0  01:46      1.10    3.41    1.00
  YS02001774YS02001770 CONDUIT    850.89     0  01:52      1.08    0.54    1.00
  YS02001779YS02001774 CONDUIT    850.35     0  01:52      1.08    0.43    1.00
  YS02001783YS02001784 CONDUIT   1171.79     0  01:47      2.33    1.62    1.00
  YS02001784YS02001785 CONDUIT   1172.97     0  01:48      2.33    2.73    1.00
  YS02001786YS02001788 CONDUIT   1172.83     0  01:48      2.49    2.26    0.89
  YS02001788YS02001790 CONDUIT   1177.67     0  01:51      2.71    0.87    0.84
  YS02001790YS02001791 CONDUIT   1287.49     0  01:56      3.42    1.40    0.71
  YS02001791YS02001793 CONDUIT   1247.65     0  01:46      6.77    0.54    0.44
  YS02001793JiankangQianchi CONDUIT   1278.95     0  01:52      2.55    0.10    0.65
  YS02001882YS02001884 CONDUIT     65.68     0  01:43      0.15    0.08    1.00
  YS02001884YS02001887 CONDUIT    110.66     0  01:43      0.14    0.15    1.00
  YS02001887YS02001890 CONDUIT   1120.67     0  01:50      1.43    1.92    1.00
  YS02001890YS02001895 CONDUIT    517.06     0  01:56      0.66    0.24    1.00
  YS02001895YS02001898 CONDUIT    517.14     0  01:57      0.66    0.90    1.00
  YS02001898YS02001901 CONDUIT    517.18     0  01:56      0.66    0.33    1.00
  YS02001901YS02001904 CONDUIT    517.14     0  01:55      0.66    0.80    1.00
  YS02001904YS02001907 CONDUIT    518.02     0  01:55      0.66    0.18    1.00
  YS02001907YS02006553 CONDUIT    796.90     0  02:12      0.89    0.94    1.00
  YS02001910YS02001907 CONDUIT   1890.26     0  01:51      2.41    1.07    1.00
  YS02001915YS02001910 CONDUIT   1889.96     0  01:51      2.41    0.94    1.00
  YS02001918YS02001915 CONDUIT    619.50     0  01:51      0.79    0.34    1.00
  YS02001920YS02001918 CONDUIT    618.84     0  01:51      0.79    0.60    1.00
  YS02001923YS02001920 CONDUIT    615.50     0  01:52      0.78    0.28    1.00
  YS02001926YS02001923 CONDUIT    614.72     0  01:52      0.98    0.88    1.00
  YS02001929YS02001926 CONDUIT    614.58     0  01:52      1.17    0.29    1.00
  YS02006553YS02006556 CONDUIT    796.29     0  02:12      1.01    0.68    1.00
  YS02006556YS02006558 CONDUIT    797.97     0  02:12      1.02    0.63    1.00
  YS02006558YS02006561 CONDUIT   1172.17     0  01:48      4.15    2.59    1.00
  YS02006561YS02001783 CONDUIT   1171.83     0  01:48      2.33    0.61    1.00
  YS02163301YS02001633 CONDUIT    932.71     0  01:44      1.19    0.88    1.00
  YS02163601YS02164001 CONDUIT   1430.68     0  01:44      1.82    1.27    1.00
  YS02164001YS02001641 CONDUIT   1429.71     0  01:44      1.82    1.95    1.00
  CC-R1                PUMP       683.00     0  00:00              1.00
  CC-R2                PUMP       683.00     0  00:00              1.00
  CC-S1                PUMP       200.00     0  00:00              1.00
  CC-S2                PUMP       200.00     0  00:00              1.00
  JK-R1                PUMP      1000.00     0  00:00              1.00
  JK-R2                PUMP      1000.00     0  00:00              1.00
  JK-S                 PUMP       300.00     0  00:00              1.00
  
  
  ***************************
  Flow Classification Summary
  ***************************
  
  -------------------------------------------------------------------------------------
                      Adjusted    ---------- Fraction of Time in Flow Class ---------- 
                       /Actual         Up    Down  Sub   Sup   Up    Down  Norm  Inlet 
  Conduit               Length    Dry  Dry   Dry   Crit  Crit  Crit  Crit  Ltd   Ctrl  
  -------------------------------------------------------------------------------------
  1                       1.00   0.00  0.00  0.00  0.00  1.00  0.00  0.00  0.46  0.00
  WS02003060WS02003069    1.00   0.00  0.00  0.00  0.98  0.02  0.00  0.00  0.61  0.00
  WS02003066WSF200        1.00   0.13  0.00  0.00  0.00  0.87  0.00  0.00  0.75  0.00
  WS02003067WS02003066    1.00   0.10  0.02  0.00  0.88  0.00  0.00  0.00  0.00  0.00
  WS02003069WS02003072    1.00   0.00  0.00  0.00  0.99  0.01  0.00  0.00  0.68  0.00
  WS02003072WS02003073    1.00   0.00  0.00  0.00  0.00  0.00  0.00  1.00  0.00  0.00
  WS02004401WS02004402    1.00   0.02  0.00  0.00  0.98  0.00  0.00  0.00  0.00  0.00
  WS02004402WS02004403    1.00   0.02  0.00  0.00  0.97  0.00  0.00  0.00  0.00  0.00
  WS02004403WS02004404    1.00   0.00  0.03  0.00  0.97  0.00  0.00  0.00  0.00  0.00
  WS02004404WS02004405    1.00   0.00  0.00  0.00  1.00  0.00  0.00  0.00  0.01  0.00
  WS02004405WS02004406    1.00   0.00  0.00  0.00  1.00  0.00  0.00  0.00  0.00  0.00
  WS02004406WS02004407    1.00   0.00  0.05  0.00  0.95  0.00  0.00  0.00  0.00  0.00
  WS02004407WS02004409    1.00   0.05  0.00  0.00  0.94  0.01  0.00  0.00  0.94  0.00
  WS02004409WS02004410    1.00   0.05  0.00  0.00  0.95  0.00  0.00  0.00  0.03  0.00
  WS02004410WS02004411    1.00   0.05  0.00  0.00  0.95  0.00  0.00  0.00  0.01  0.00
  WS02004411WS02004412    1.00   0.05  0.00  0.00  0.95  0.00  0.00  0.00  0.00  0.00
  WS02004412WS02004413    1.00   0.05  0.00  0.00  0.94  0.00  0.00  0.00  0.01  0.00
  WS02004413WS02003067    1.00   0.06  0.04  0.00  0.00  0.00  0.90  0.00  0.00  0.00
  WS02006109WS02006110    1.00   0.00  0.01  0.00  0.98  0.00  0.01  0.00  0.00  0.00
  WS02006110WS02006113    1.00   0.01  0.01  0.00  0.98  0.00  0.00  0.00  0.00  0.00
  WS02006111WS02006112    1.00   0.02  0.00  0.00  0.98  0.00  0.00  0.00  0.98  0.00
  WS02006112WS02006115    1.00   0.02  0.00  0.00  0.97  0.00  0.00  0.00  0.00  0.00
  WS02006113WS02006111    1.00   0.02  0.00  0.00  0.00  0.98  0.00  0.00  0.17  0.00
  WS02006115WS02006116    1.00   0.02  0.00  0.00  0.97  0.00  0.00  0.01  0.00  0.00
  WS02006116WS02004401    1.00   0.02  0.00  0.00  0.98  0.00  0.00  0.00  0.00  0.00
  WS02006228WS02006109    1.00   0.00  0.00  0.00  1.00  0.00  0.00  0.00  0.00  0.00
  WS02006229WS02006228    1.00   0.00  0.00  0.00  0.99  0.00  0.00  0.01  0.00  0.00
  WS02006230WS02006229    1.00   0.00  0.00  0.00  0.99  0.00  0.00  0.01  0.00  0.00
  WS02006231WS02006230    1.00   0.00  0.00  0.00  0.34  0.00  0.66  0.00  0.00  0.00
  WS02006232WS02006231    1.00   0.00  0.00  0.00  0.99  0.00  0.01  0.00  0.00  0.00
  WS02006234WS02006232    1.00   0.00  0.00  0.00  1.00  0.00  0.00  0.00  0.12  0.00
  WS02006235WS02006234    1.00   0.00  0.00  0.00  0.80  0.00  0.20  0.00  0.00  0.00
  WS02006238WS02006235    1.00   0.00  0.00  0.00  1.00  0.00  0.00  0.00  0.00  0.00
  WS02006239WS02006238    1.00   0.00  0.00  0.00  1.00  0.00  0.00  0.00  0.22  0.00
  WS02006240WS02006239    1.00   0.00  0.00  0.00  0.68  0.00  0.00  0.32  0.02  0.00
  WS02006242WS02006240    1.00   0.00  0.00  0.00  0.99  0.00  0.01  0.00  0.00  0.00
  WS02006243WS02006242    1.00   0.00  0.00  0.00  0.99  0.00  0.00  0.01  0.41  0.00
  WS02006245WS02006243    1.00   0.00  0.00  0.00  0.79  0.00  0.00  0.21  0.01  0.00
  WS02006247WS02006245    1.00   0.00  0.00  0.00  0.98  0.00  0.00  0.02  0.00  0.00
  WS02006248WS02006247    1.00   0.00  0.00  0.00  0.99  0.00  0.00  0.01  0.26  0.00
  WS02006249WS02006248    1.00   0.00  0.00  0.00  0.59  0.00  0.41  0.00  0.00  0.00
  WS02006251WS02006249    1.00   0.00  0.00  0.00  0.99  0.01  0.00  0.00  0.42  0.00
  WS02006252WS02006251    1.00   0.00  0.38  0.00  0.12  0.00  0.50  0.00  0.00  0.00
  WS02006256WS02006235    1.00   0.00  0.00  0.00  0.99  0.01  0.00  0.00  0.00  0.00
  WSF200WS02003060        1.00   0.00  0.13  0.00  0.24  0.64  0.00  0.00  0.35  0.00
  YS02001580YS02001583    1.00   0.21  0.58  0.00  0.21  0.00  0.00  0.00  0.67  0.00
  YS02001583YS02001586    1.00   0.42  0.31  0.00  0.27  0.00  0.00  0.00  0.67  0.00
  YS02001586YS02001590    1.00   0.13  0.00  0.00  0.43  0.04  0.00  0.40  0.34  0.00
  YS02001590YS02001593    1.00   0.13  0.01  0.00  0.14  0.00  0.73  0.00  0.00  0.00
  YS02001593YS02001596    1.00   0.13  0.00  0.00  0.15  0.01  0.00  0.70  0.02  0.00
  YS02001596YS02001600    1.00   0.14  0.00  0.00  0.21  0.01  0.00  0.64  0.04  0.00
  YS02001600YS02001601    1.00   0.13  0.01  0.00  0.86  0.00  0.00  0.00  0.60  0.00
  YS02001601YS02001602    1.00   0.13  0.01  0.00  0.87  0.00  0.00  0.00  0.00  0.00
  YS02001602YS02001605    1.00   0.13  0.00  0.00  0.86  0.00  0.00  0.00  0.00  0.00
  YS02001605YS02001607    1.00   0.14  0.00  0.00  0.86  0.00  0.00  0.00  0.00  0.00
  YS02001607YS02001610    1.00   0.13  0.01  0.00  0.86  0.00  0.00  0.00  0.01  0.00
  YS02001610YS02001613    1.00   0.13  0.00  0.00  0.87  0.00  0.00  0.00  0.00  0.00
  YS02001613YS02001616    1.00   0.13  0.00  0.00  0.87  0.00  0.00  0.00  0.00  0.00
  YS02001616YS02001619    1.00   0.13  0.00  0.00  0.87  0.00  0.00  0.00  0.00  0.00
  YS02001619YS02001622    1.00   0.13  0.00  0.00  0.87  0.00  0.00  0.00  0.29  0.00
  YS02001622YS02001625    1.00   0.13  0.00  0.00  0.87  0.00  0.00  0.00  0.04  0.00
  YS02001625YS02001629    1.00   0.13  0.04  0.00  0.18  0.00  0.65  0.00  0.00  0.00
  YS02001629YS02163301    1.00   0.15  0.01  0.00  0.84  0.00  0.00  0.00  0.00  0.00
  YS02001633YS02163601    1.00   0.00  0.01  0.00  0.99  0.00  0.00  0.00  0.15  0.00
  YS02001641YS02001644    1.00   0.00  0.01  0.00  0.99  0.00  0.00  0.00  0.00  0.00
  YS02001644YS02001647    1.00   0.00  0.17  0.00  0.83  0.00  0.00  0.00  0.00  0.00
  YS02001647YS02001649    1.00   0.00  0.17  0.00  0.60  0.24  0.00  0.00  0.55  0.00
  YS02001649YS02001757    1.00   0.00  0.00  0.00  0.89  0.11  0.00  0.00  0.40  0.00
  YS02001652YS02001649    1.00   0.00  0.00  0.00  0.97  0.03  0.00  0.00  0.71  0.00
  YS02001655YS02001652    1.00   0.00  0.00  0.00  0.21  0.02  0.00  0.78  0.05  0.00
  YS02001658YS02001655    1.00   0.00  0.14  0.00  0.69  0.17  0.00  0.00  0.66  0.00
  YS02001661YS02001658    1.00   0.14  0.00  0.00  0.53  0.33  0.00  0.00  0.69  0.00
  YS02001664YS02001661    1.00   0.13  0.00  0.00  0.78  0.10  0.00  0.00  0.84  0.00
  YS02001745YS02001748    1.00   0.00  0.00  0.00  0.13  0.01  0.00  0.87  0.05  0.00
  YS02001748YS02001751    1.00   0.00  0.00  0.00  0.85  0.15  0.00  0.00  0.77  0.00
  YS02001751YS02001754    1.00   0.00  0.00  0.00  0.19  0.00  0.00  0.81  0.03  0.00
  YS02001754YS02001757    1.00   0.00  0.00  0.00  1.00  0.00  0.00  0.00  0.76  0.00
  YS02001757CaochengTiaoxuchi    1.00   0.00  0.00  0.00  0.97  0.03  0.00  0.00  0.61  0.00
  YS02001759YS02001757    1.00   0.00  0.00  0.00  1.00  0.00  0.00  0.00  0.51  0.00
  YS02001762YS02001759    1.00   0.00  0.00  0.00  1.00  0.00  0.00  0.00  0.05  0.00
  YS02001765YS02001762    1.00   0.00  0.00  0.00  1.00  0.00  0.00  0.00  0.64  0.00
  YS02001767YS02001765    1.00   0.00  0.00  0.00  1.00  0.00  0.00  0.00  0.01  0.00
  YS02001770YS02001767    1.00   0.00  0.00  0.00  1.00  0.00  0.00  0.00  0.00  0.00
  YS02001774YS02001770    1.00   0.00  0.13  0.00  0.70  0.00  0.17  0.00  0.03  0.00
  YS02001779YS02001774    1.00   0.00  0.00  0.00  1.00  0.00  0.00  0.00  0.76  0.00
  YS02001783YS02001784    1.00   0.00  0.17  0.00  0.83  0.00  0.00  0.00  0.55  0.00
  YS02001784YS02001785    1.00   0.00  0.00  0.00  1.00  0.00  0.00  0.00  0.16  0.00
  YS02001786YS02001788    1.00   0.00  0.00  0.00  0.80  0.20  0.00  0.00  0.00  0.00
  YS02001788YS02001790    1.00   0.00  0.00  0.00  0.21  0.79  0.00  0.00  0.80  0.00
  YS02001790YS02001791    1.00   0.00  0.00  0.00  0.01  0.99  0.00  0.00  0.16  0.00
  YS02001791YS02001793    1.00   0.00  0.00  0.00  0.00  1.00  0.00  0.00  0.01  0.00
  YS02001793JiankangQianchi    1.00   0.00  0.00  0.00  0.97  0.03  0.00  0.00  0.95  0.00
  YS02001882YS02001884    1.00   0.15  0.01  0.00  0.84  0.00  0.00  0.00  0.00  0.00
  YS02001884YS02001887    1.00   0.06  0.05  0.00  0.89  0.00  0.00  0.00  0.00  0.00
  YS02001887YS02001890    1.00   0.00  0.00  0.00  0.97  0.00  0.03  0.00  0.00  0.00
  YS02001890YS02001895    1.00   0.00  0.16  0.00  0.84  0.00  0.00  0.00  0.00  0.00
  YS02001895YS02001898    1.00   0.16  0.00  0.00  0.82  0.00  0.02  0.00  0.00  0.00
  YS02001898YS02001901    1.00   0.16  0.00  0.00  0.84  0.00  0.00  0.00  0.01  0.00
  YS02001901YS02001904    1.00   0.16  0.00  0.00  0.84  0.00  0.00  0.00  0.00  0.00
  YS02001904YS02001907    1.00   0.00  0.16  0.00  0.84  0.00  0.00  0.00  0.00  0.00
  YS02001907YS02006553    1.00   0.00  0.02  0.00  0.98  0.00  0.00  0.00  0.00  0.00
  YS02001910YS02001907    1.00   0.00  0.00  0.00  0.97  0.00  0.00  0.03  0.12  0.00
  YS02001915YS02001910    1.00   0.00  0.00  0.00  0.97  0.03  0.00  0.00  0.15  0.00
  YS02001918YS02001915    1.00   0.00  0.01  0.00  0.98  0.02  0.00  0.00  0.74  0.00
  YS02001920YS02001918    1.00   0.00  0.01  0.00  0.99  0.00  0.00  0.00  0.00  0.00
  YS02001923YS02001920    1.00   0.00  0.00  0.00  1.00  0.00  0.00  0.00  0.91  0.00
  YS02001926YS02001923    1.00   0.00  0.07  0.00  0.07  0.00  0.85  0.00  0.00  0.00
  YS02001929YS02001926    1.00   0.00  0.13  0.00  0.87  0.00  0.00  0.00  0.81  0.00
  YS02006553YS02006556    1.00   0.01  0.00  0.00  0.99  0.00  0.00  0.00  0.03  0.00
  YS02006556YS02006558    1.00   0.00  0.00  0.00  1.00  0.00  0.00  0.00  0.00  0.00
  YS02006558YS02006561    1.00   0.17  0.00  0.00  0.07  0.76  0.00  0.00  0.18  0.00
  YS02006561YS02001783    1.00   0.17  0.00  0.00  0.10  0.72  0.00  0.00  0.68  0.00
  YS02163301YS02001633    1.00   0.00  0.15  0.00  0.85  0.00  0.00  0.00  0.00  0.00
  YS02163601YS02164001    1.00   0.00  0.08  0.00  0.92  0.00  0.00  0.00  0.00  0.00
  YS02164001YS02001641    1.00   0.01  0.07  0.00  0.92  0.00  0.00  0.00  0.05  0.00
  
  
  *************************
  Conduit Surcharge Summary
  *************************
  
  ----------------------------------------------------------------------------
                                                           Hours        Hours 
                         --------- Hours Full --------   Above Full   Capacity
  Conduit                Both Ends  Upstream  Dnstream   Normal Flow   Limited
  ----------------------------------------------------------------------------
  WS02003072WS02003073        0.01      0.01      0.01      1.17         0.01
  WS02004404WS02004405        0.01      0.01      0.01      4.44         0.01
  WS02004405WS02004406        0.01      0.01      0.01      0.79         0.01
  WS02006109WS02006110        0.83      0.83      2.35      0.91         0.01
  WS02006110WS02006113        0.01      0.01      2.26      0.01         0.01
  WS02006111WS02006112        0.01      0.01      3.06      0.01         0.01
  WS02006112WS02006115        0.01      0.01      0.85      0.01         0.01
  WS02006228WS02006109        2.18      2.35      2.18      3.56         2.18
  WS02006229WS02006228        2.17      2.22      2.17      2.95         2.16
  WS02006230WS02006229        2.52      2.85      2.52      4.97         2.51
  WS02006231WS02006230        0.84      0.84      0.96      4.72         0.01
  WS02006232WS02006231        0.93      0.93      2.36      0.98         0.01
  WS02006234WS02006232        2.12      2.13      2.36      0.96         0.96
  WS02006235WS02006234        1.17      1.17      2.19      4.52         0.01
  WS02006238WS02006235        2.23      2.23      2.38      0.01         0.01
  WS02006239WS02006238        2.22      2.28      2.27      2.55         2.02
  WS02006240WS02006239        2.13      2.16      2.13      2.54         1.90
  WS02006242WS02006240        2.15      2.15      2.39      2.84         0.01
  WS02006243WS02006242        2.17      2.17      2.29      0.01         0.03
  WS02006245WS02006243        2.15      2.17      2.15      1.69         1.40
  WS02006247WS02006245        2.15      2.21      2.15      4.32         2.15
  WS02006248WS02006247        2.15      2.15      2.19      0.01         0.03
  WS02006249WS02006248        2.14      2.14      2.16      4.29         0.01
  WS02006251WS02006249        2.16      2.18      2.16      2.63         2.11
  WS02006252WS02006251        2.68      2.68      2.69      2.69         0.01
  WS02006256WS02006235        4.54      4.58      6.28      1.40         0.01
  YS02001580YS02001583        0.76      0.76      0.82      0.01         0.01
  YS02001583YS02001586        0.77      0.77      0.90      0.01         0.01
  YS02001586YS02001590        0.91      0.91      0.98      0.01         0.01
  YS02001590YS02001593        0.99      0.99      1.00      1.04         0.01
  YS02001593YS02001596        0.99      0.99      1.09      0.01         0.01
  YS02001596YS02001600        1.14      1.14      1.24      0.01         0.01
  YS02001600YS02001601        1.31      1.31      1.57      0.01         0.01
  YS02001601YS02001602        1.48      1.48      1.60      1.24         0.01
  YS02001602YS02001605        1.44      1.44      1.48      2.30         0.01
  YS02001605YS02001607        1.39      1.44      1.39      1.54         1.39
  YS02001607YS02001610        0.97      0.97      1.00      0.01         0.01
  YS02001610YS02001613        0.96      0.96      1.00      0.01         0.01
  YS02001613YS02001616        0.92      0.92      0.96      0.01         0.01
  YS02001616YS02001619        0.91      0.91      0.92      0.08         0.11
  YS02001619YS02001622        0.91      0.91      0.91      0.97         0.86
  YS02001622YS02001625        0.91      0.91      1.09      0.01         0.01
  YS02001625YS02001629        0.86      0.86      1.09      0.01         0.01
  YS02001629YS02163301        1.09      1.09      1.10      0.06         0.14
  YS02001633YS02163601        1.12      1.12      1.15      0.35         0.32
  YS02001641YS02001644        1.05      1.07      1.05      1.62         1.04
  YS02001644YS02001647        0.84      0.84      1.05      0.05         0.01
  YS02001647YS02001649        0.84      0.84      0.98      0.01         0.01
  YS02001649YS02001757        0.97      0.98      1.05      0.06         0.03
  YS02001652YS02001649        0.79      0.79      0.98      0.01         0.01
  YS02001655YS02001652        0.56      0.56      0.75      0.01         0.01
  YS02001658YS02001655        0.31      0.31      0.56      0.01         0.01
  YS02001661YS02001658        0.12      0.12      0.31      0.01         0.01
  YS02001664YS02001661        0.01      0.01      0.16      0.01         0.01
  YS02001745YS02001748        0.01      0.01      0.25      0.01         0.01
  YS02001748YS02001751        0.29      0.29      0.41      0.01         0.01
  YS02001751YS02001754        0.41      0.41      0.65      0.01         0.01
  YS02001754YS02001757        0.70      0.70      1.05      0.01         0.01
  YS02001757CaochengTiaoxuchi        0.97      1.05      2.14      0.45         0.34
  YS02001759YS02001757        0.95      0.95      1.05      0.11         0.11
  YS02001762YS02001759        0.91      0.91      0.95      0.01         0.02
  YS02001765YS02001762        0.86      0.86      0.91      0.01         0.01
  YS02001767YS02001765        0.82      0.82      0.86      0.01         0.02
  YS02001770YS02001767        0.82      0.82      0.82      0.64         0.57
  YS02001774YS02001770        0.79      0.79      0.89      0.01         0.01
  YS02001779YS02001774        0.64      0.64      0.89      0.01         0.01
  YS02001783YS02001784        0.62      0.65      0.62      0.79         0.62
  YS02001784YS02001785        0.52      0.62      0.52      1.03         0.52
  YS02001786YS02001788        0.01      0.52      0.01      0.89         0.01
  YS02001790YS02001791        0.01      0.01      0.01      0.61         0.01
  YS02001793JiankangQianchi        0.01      0.01      7.52      0.01         0.01
  YS02001882YS02001884        0.59      0.59      0.60      0.01         0.01
  YS02001884YS02001887        0.63      0.63      0.64      0.01         0.01
  YS02001887YS02001890        0.65      0.65      0.66      0.19         0.01
  YS02001890YS02001895        0.58      0.58      0.68      0.01         0.01
  YS02001895YS02001898        0.58      0.58      0.58      0.01         0.01
  YS02001898YS02001901        0.58      0.58      0.62      0.01         0.01
  YS02001901YS02001904        0.61      0.61      0.62      0.01         0.01
  YS02001904YS02001907        0.61      0.61      0.87      0.01         0.01
  YS02001907YS02006553        1.05      1.05      1.12      0.01         0.01
  YS02001910YS02001907        0.68      0.68      0.85      0.07         0.07
  YS02001915YS02001910        0.59      0.59      0.68      0.01         0.01
  YS02001918YS02001915        0.51      0.51      0.59      0.01         0.01
  YS02001920YS02001918        0.51      0.51      0.52      0.01         0.01
  YS02001923YS02001920        0.46      0.46      0.52      0.01         0.01
  YS02001926YS02001923        0.20      0.20      0.23      0.01         0.01
  YS02001929YS02001926        0.09      0.09      0.23      0.01         0.01
  YS02006553YS02006556        0.77      0.77      0.87      0.01         0.01
  YS02006556YS02006558        0.81      0.81      0.88      0.01         0.01
  YS02006558YS02006561        0.54      0.76      0.54      0.98         0.54
  YS02006561YS02001783        0.47      0.47      0.65      0.01         0.01
  YS02163301YS02001633        1.10      1.10      1.14      0.01         0.01
  YS02163601YS02164001        1.07      1.07      1.15      0.05         0.01
  YS02164001YS02001641        1.07      1.07      1.07      0.76         0.73
  
  
  ***************
  Pumping Summary
  ***************
  
  ---------------------------------------------------------------------------------------------------------
                                                  Min       Avg       Max     Total     Power    % Time Off
                        Percent   Number of      Flow      Flow      Flow    Volume     Usage    Pump Curve
  Pump                 Utilized   Start-Ups       LPS       LPS       LPS  10^6 ltr     Kw-hr    Low   High
  ---------------------------------------------------------------------------------------------------------
  CC-R1                   20.08           7      0.00    683.00    683.00     3.950     74.07    0.0   15.3
  CC-R2                   17.86           6      0.00    683.00    683.00     3.514     66.02    0.0   16.5
  CC-S1                   51.07          14      0.00    200.00    200.00     2.942     17.50    0.0    0.0
  CC-S2                   37.18          14      0.00    200.00    200.00     2.141     12.48    0.0    0.0
  JK-R1                    7.56          10      0.00   1000.00   1000.00     2.178     23.39    0.0    0.0
  JK-R2                    2.96          12      0.00   1000.00   1000.00     0.852      7.13    0.0    0.0
  JK-S                    17.43          15      0.00    300.00    300.00     1.506     24.20    0.0    0.0
  

  Analysis begun on:  Wed Apr 23 23:59:53 2025
  Analysis ended on:  Wed Apr 23 23:59:55 2025
  Total elapsed time: 00:00:02