
  EPA STORM WATER MANAGEMENT MODEL - VERSION 5.2 (Build 5.2.4)
  PYSWMM TOOLKIT API - VERSION v1.0 (2023-11-27)
  ------------------------------------------------------------

  WARNING 04: minimum elevation drop used for Conduit WS02004404WS02004405
  WARNING 03: negative offset ignored for Link YS02001904YS02001907
  
  ****************
  Analysis Options
  ****************
  Flow Units ............... LPS
  Process Models:
    Rainfall/Runoff ........ YES
    RDII ................... NO
    Snowmelt ............... NO
    Groundwater ............ NO
    Flow Routing ........... YES
    Ponding Allowed ........ NO
    Water Quality .......... NO
  Infiltration Method ...... HORTON
  Flow Routing Method ...... DYNWAVE
  Surcharge Method ......... EXTRAN
  Starting Date ............ 08/28/2015 08:00:00
  Ending Date .............. 08/28/2015 16:00:00
  Antecedent Dry Days ...... 8.0
  Report Time Step ......... 00:01:00
  Wet Time Step ............ 00:01:00
  Dry Time Step ............ 00:01:00
  Routing Time Step ........ 30.00 sec
  Variable Time Step ....... YES
  Maximum Trials ........... 8
  Number of Threads ........ 4
  Head Tolerance ........... 0.001500 m
  
  
  **************************        Volume         Depth
  Runoff Quantity Continuity     hectare-m            mm
  **************************     ---------       -------
  Total Precipitation ......         7.979       240.547
  Evaporation Loss .........         0.000         0.000
  Infiltration Loss ........         0.110         3.319
  Surface Runoff ...........         7.838       236.287
  Final Storage ............         0.033         1.000
  Continuity Error (%) .....        -0.025
  
  
  **************************        Volume        Volume
  Flow Routing Continuity        hectare-m      10^6 ltr
  **************************     ---------     ---------
  Dry Weather Inflow .......         0.025         0.251
  Wet Weather Inflow .......         7.836        78.366
  Groundwater Inflow .......         0.000         0.000
  RDII Inflow ..............         0.000         0.000
  External Inflow ..........         0.083         0.834
  External Outflow .........         2.866        28.656
  Flooding Loss ............         5.147        51.474
  Evaporation Loss .........         0.000         0.000
  Exfiltration Loss ........         0.000         0.000
  Initial Stored Volume ....         0.243         2.431
  Final Stored Volume ......         0.186         1.863
  Continuity Error (%) .....        -0.137
  
  
  *************************
  Highest Continuity Errors
  *************************
  Node YS02001583 (-14.16%)
  Node YS02001884 (4.83%)
  
  
  ***************************
  Time-Step Critical Elements
  ***************************
  Link WS02006252WS02006251 (46.78%)
  Link YS02001791YS02001793 (15.84%)
  Link WS02004404WS02004405 (11.71%)
  Link WS02006238WS02006235 (10.37%)
  Link WS02006235WS02006234 (4.89%)
  
  
  ********************************
  Highest Flow Instability Indexes
  ********************************
  Link WS02006113WS02006111 (56)
  Link WS02006111WS02006112 (33)
  Link WS02004404WS02004405 (24)
  Link YS02001602YS02001605 (23)
  Link YS02001605YS02001607 (22)
  
  
  *********************************
  Most Frequent Nonconverging Nodes
  *********************************
  Node CC-1 (15.72%)
  Node CC-2 (15.72%)
  Node JK-1 (15.72%)
  Node JK-2 (15.72%)
  Node WSC (15.72%)
  
  
  *************************
  Routing Time Step Summary
  *************************
  Minimum Time Step           :     0.00 sec
  Average Time Step           :     1.67 sec
  Maximum Time Step           :     7.04 sec
  % of Time in Steady State   :     0.00
  Average Iterations per Step :     3.43
  % of Steps Not Converging   :    15.72
  Time Step Frequencies       :
     30.000 - 13.228 sec      :     0.00 %
     13.228 -  5.833 sec      :     5.40 %
      5.833 -  2.572 sec      :    10.95 %
      2.572 -  1.134 sec      :    30.97 %
      1.134 -  0.500 sec      :    52.68 %
  
  
  ***************************
  Subcatchment Runoff Summary
  ***************************
  
  ------------------------------------------------------------------------------------------------------------------------------
                            Total      Total      Total      Total     Imperv       Perv      Total       Total     Peak  Runoff
                           Precip      Runon       Evap      Infil     Runoff     Runoff     Runoff      Runoff   Runoff   Coeff
  Subcatchment                 mm         mm         mm         mm         mm         mm         mm    10^6 ltr      LPS
  ------------------------------------------------------------------------------------------------------------------------------
  sub60                    240.55       0.00       0.00       1.96     210.54      26.91     237.45        3.12   733.01   0.987
  sub61                    240.55       0.00       0.00       2.86     198.59      38.05     236.63        4.34  1022.21   0.984
  sub62                    240.55       0.00       0.00       1.31     220.06      17.94     238.01        6.52  1528.48   0.989
  sub63                    240.55       0.00       0.00       5.31     169.87      64.46     234.33        5.32  1254.01   0.974
  sub64                    240.55       0.00       0.00       2.68     203.29      33.41     236.70        5.69  1334.44   0.984
  sub65                    240.55       0.00       0.00       2.32     208.05      28.96     237.01        6.52  1529.23   0.985
  sub66                    240.55       0.00       0.00       6.59     169.73      63.17     232.90       10.86  2445.99   0.968
  sub67                    240.55       0.00       0.00       1.24     220.14      18.01     238.15        4.43  1039.45   0.990
  sub68                    240.55       0.00       0.00       2.37     205.73      31.31     237.05        6.52  1533.32   0.985
  sub69                    240.55       0.00       0.00       2.18     204.38      33.91     238.29        8.82  2053.47   0.991
  sub70                    240.55       0.00       0.00       7.26     158.60      74.53     233.14        6.74  1452.71   0.969
  sub71                    240.55       0.00       0.00       1.35     220.01      17.90     237.91        6.22  1455.90   0.989
  sub72                    240.55       0.00       0.00       1.20     222.33      15.64     237.96        3.27   762.42   0.989
  
  
  ******************
  Node Depth Summary
  ******************
  
  ---------------------------------------------------------------------------------
                                 Average  Maximum  Maximum  Time of Max    Reported
                                   Depth    Depth      HGL   Occurrence   Max Depth
  Node                 Type       Meters   Meters   Meters  days hr:min      Meters
  ---------------------------------------------------------------------------------
  WS02003060           JUNCTION     0.27     0.38     5.32     0  01:45        0.38
  WS02003066           JUNCTION     0.22     0.30     5.85     0  01:44        0.30
  WS02003067           JUNCTION     0.56     0.70     6.02     0  01:44        0.70
  WS02003069           JUNCTION     0.31     0.43     5.02     0  01:46        0.43
  WS02003072           JUNCTION     0.37     0.50     4.87     0  01:47        0.50
  WS02003073           JUNCTION     0.22     0.30     4.36     0  01:48        0.30
  WS02004401           JUNCTION     0.66     0.88     6.88     0  01:44        0.88
  WS02004402           JUNCTION     0.69     0.90     6.86     0  01:45        0.90
  WS02004403           JUNCTION     0.72     0.92     6.85     0  01:45        0.92
  WS02004404           JUNCTION     0.79     1.04     6.89     0  02:15        1.04
  WS02004405           JUNCTION     0.77     0.97     6.82     0  01:41        0.97
  WS02004406           JUNCTION     0.78     0.96     6.79     0  01:41        0.96
  WS02004407           JUNCTION     0.21     0.30     6.61     0  01:41        0.30
  WS02004409           JUNCTION     0.46     0.67     6.44     0  01:44        0.67
  WS02004410           JUNCTION     0.48     0.68     6.40     0  01:43        0.68
  WS02004411           JUNCTION     0.50     0.69     6.37     0  01:43        0.69
  WS02004412           JUNCTION     0.52     0.70     6.34     0  01:45        0.70
  WS02004413           JUNCTION     0.68     0.86     6.33     0  01:44        0.86
  WS02006109           JUNCTION     0.72     1.19     7.81     0  03:01        1.03
  WS02006110           JUNCTION     0.71     1.24     7.83     0  01:51        0.98
  WS02006111           JUNCTION     0.20     0.29     6.99     0  01:58        0.29
  WS02006112           JUNCTION     0.82     1.12     7.00     0  03:29        1.12
  WS02006113           JUNCTION     0.31     0.46     7.35     0  03:20        0.46
  WS02006115           JUNCTION     0.55     0.78     6.91     0  01:45        0.77
  WS02006116           JUNCTION     0.63     0.86     6.90     0  01:45        0.86
  WS02006228           JUNCTION     0.71     1.26     7.92     0  01:51        1.06
  WS02006229           JUNCTION     0.69     1.31     8.01     0  01:51        1.15
  WS02006230           JUNCTION     0.70     1.55     8.30     0  01:51        1.26
  WS02006231           JUNCTION     0.50     1.51     8.64     0  02:30        0.95
  WS02006232           JUNCTION     0.64     1.39     8.43     0  02:15        1.14
  WS02006234           JUNCTION     0.58     1.77     8.92     0  01:50        1.26
  WS02006235           JUNCTION     0.62     1.56     8.72     0  02:15        1.37
  WS02006238           JUNCTION     0.65     1.60     8.75     0  02:15        1.39
  WS02006239           JUNCTION     0.62     1.59     8.80     0  02:15        1.37
  WS02006240           JUNCTION     0.59     1.53     8.82     0  02:15        1.34
  WS02006242           JUNCTION     0.67     1.55     8.82     0  02:15        1.38
  WS02006243           JUNCTION     0.57     1.41     8.83     0  02:15        1.23
  WS02006245           JUNCTION     0.57     1.31     8.80     0  02:15        1.17
  WS02006247           JUNCTION     0.60     1.25     8.75     0  02:15        1.19
  WS02006248           JUNCTION     0.56     1.10     8.69     0  01:50        1.10
  WS02006249           JUNCTION     0.59     1.09     8.69     0  01:14        1.09
  WS02006251           JUNCTION     0.59     1.37     9.04     0  01:14        1.19
  WS02006252           JUNCTION     0.42     1.50     9.74     0  00:00        1.16
  WS02006256           JUNCTION     1.09     2.35     9.28     0  00:00        2.35
  WSF200               JUNCTION     0.20     0.29     5.53     0  01:45        0.29
  YS02001580           JUNCTION     0.20     1.05     9.59     0  01:05        1.05
  YS02001583           JUNCTION     0.23     1.14     9.64     0  01:05        0.86
  YS02001586           JUNCTION     0.33     1.13     9.30     0  01:04        1.13
  YS02001590           JUNCTION     0.43     1.40     9.26     0  01:04        1.38
  YS02001593           JUNCTION     0.37     1.44     9.31     0  01:04        1.31
  YS02001596           JUNCTION     0.47     1.76     9.18     0  01:04        1.68
  YS02001600           JUNCTION     0.54     1.87     9.00     0  01:04        1.87
  YS02001601           JUNCTION     0.72     2.06     8.90     0  01:04        2.06
  YS02001602           JUNCTION     0.62     1.87     8.77     0  01:06        1.87
  YS02001605           JUNCTION     0.59     1.78     8.68     0  01:06        1.78
  YS02001607           JUNCTION     0.58     1.68     8.53     0  01:06        1.68
  YS02001610           JUNCTION     0.63     1.68     8.48     0  01:06        1.68
  YS02001613           JUNCTION     0.59     1.70     8.54     0  01:06        1.68
  YS02001616           JUNCTION     0.52     1.61     8.52     0  01:06        1.61
  YS02001619           JUNCTION     0.50     1.61     8.54     0  01:06        1.61
  YS02001622           JUNCTION     0.49     1.62     8.52     0  01:06        1.61
  YS02001625           JUNCTION     0.76     1.78     8.38     0  01:05        1.78
  YS02001629           JUNCTION     0.63     1.85     8.40     0  01:06        1.85
  YS02001633           JUNCTION     0.72     2.08     8.53     0  01:05        2.08
  YS02001641           JUNCTION     0.72     2.10     8.54     0  01:06        2.10
  YS02001644           JUNCTION     0.72     1.92     8.35     0  01:06        1.92
  YS02001647           JUNCTION     0.53     1.90     8.51     0  01:06        1.85
  YS02001649           JUNCTION     0.60     2.05     8.44     0  01:06        2.05
  YS02001652           JUNCTION     0.50     2.16     8.76     0  01:06        1.91
  YS02001655           JUNCTION     0.43     2.20     9.05     0  01:06        1.71
  YS02001658           JUNCTION     0.34     2.30     9.44     0  01:07        1.48
  YS02001661           JUNCTION     0.32     2.46     9.86     0  01:07        1.30
  YS02001664           JUNCTION     0.13     1.70     9.62     0  01:08        0.80
  YS02001745           JUNCTION     0.21     2.35     9.87     0  01:07        1.00
  YS02001748           JUNCTION     0.33     2.27     9.35     0  01:07        1.39
  YS02001751           JUNCTION     0.39     2.20     9.08     0  01:07        1.54
  YS02001754           JUNCTION     0.48     2.20     8.81     0  01:06        1.80
  YS02001757           JUNCTION     0.65     2.21     8.47     0  01:06        2.17
  YS02001759           JUNCTION     0.59     2.21     8.57     0  01:06        2.12
  YS02001762           JUNCTION     0.58     2.15     8.55     0  01:06        2.13
  YS02001765           JUNCTION     0.56     2.10     8.55     0  01:06        2.07
  YS02001767           JUNCTION     0.55     2.03     8.52     0  01:06        2.03
  YS02001770           JUNCTION     0.56     1.95     8.44     0  01:06        1.95
  YS02001774           JUNCTION     0.62     2.05     8.47     0  01:06        2.03
  YS02001779           JUNCTION     0.46     1.68     8.37     0  01:07        1.68
  YS02001783           JUNCTION     0.36     1.75     7.89     0  01:06        1.24
  YS02001784           JUNCTION     0.35     1.61     7.68     0  01:06        1.14
  YS02001786           JUNCTION     0.29     1.73     7.76     0  01:06        0.87
  YS02001788           JUNCTION     0.20     0.65     6.63     0  01:06        0.62
  YS02001790           JUNCTION     0.23     0.73     6.37     0  01:22        0.73
  YS02001791           JUNCTION     0.14     0.45     5.92     0  01:06        0.44
  YS02001793           JUNCTION     0.08     0.30     5.14     0  02:20        0.30
  YS02001882           JUNCTION     0.49     1.83     8.55     0  01:05        1.69
  YS02001884           JUNCTION     0.58     1.93     8.55     0  01:05        1.78
  YS02001887           JUNCTION     0.66     2.00     8.54     0  01:05        1.86
  YS02001890           JUNCTION     0.68     1.81     8.32     0  01:05        1.81
  YS02001895           JUNCTION     0.45     1.75     8.50     0  01:05        1.58
  YS02001898           JUNCTION     0.46     1.77     8.51     0  01:05        1.57
  YS02001901           JUNCTION     0.57     1.87     8.48     0  01:05        1.78
  YS02001904           JUNCTION     0.55     1.85     8.48     0  01:05        1.70
  YS02001907           JUNCTION     0.88     1.96     8.25     0  01:05        1.96
  YS02001910           JUNCTION     0.70     2.09     8.59     0  01:05        2.01
  YS02001915           JUNCTION     0.52     2.00     8.72     0  01:05        2.00
  YS02001918           JUNCTION     0.37     1.81     8.88     0  01:06        1.71
  YS02001920           JUNCTION     0.45     2.14     9.15     0  01:06        1.80
  YS02001923           JUNCTION     0.32     2.03     9.29     0  01:06        1.58
  YS02001926           JUNCTION     0.31     1.90     9.35     0  01:06        1.43
  YS02001929           JUNCTION     0.22     1.78     9.47     0  01:07        1.78
  YS02006553           JUNCTION     0.88     2.11     8.40     0  01:06        1.99
  YS02006556           JUNCTION     0.85     2.24     8.55     0  01:06        1.99
  YS02006558           JUNCTION     0.90     2.31     8.58     0  01:06        2.06
  YS02006561           JUNCTION     0.25     1.60     8.26     0  01:06        0.90
  YS02163301           JUNCTION     0.66     2.03     8.55     0  01:05        1.95
  YS02163601           JUNCTION     0.77     2.08     8.48     0  01:05        2.08
  YS02164001           JUNCTION     0.70     2.10     8.56     0  01:06        2.10
  CC-1                 OUTFALL      0.00     0.00     0.00     0  00:00        0.00
  CC-2                 OUTFALL      0.00     0.00     0.00     0  00:00        0.00
  JK-1                 OUTFALL      0.00     0.00     0.00     0  00:00        0.00
  JK-2                 OUTFALL      0.00     0.00     0.00     0  00:00        0.00
  WSC                  OUTFALL      0.22     0.30     0.97     0  01:48        0.30
  CC-storage           STORAGE      1.11     2.30     7.80     0  02:38        2.30
  JK-storage           STORAGE      2.86     4.24     5.04     0  01:35        4.19
  
  
  *******************
  Node Inflow Summary
  *******************
  
  -------------------------------------------------------------------------------------------------
                                  Maximum  Maximum                  Lateral       Total        Flow
                                  Lateral    Total  Time of Max      Inflow      Inflow     Balance
                                   Inflow   Inflow   Occurrence      Volume      Volume       Error
  Node                 Type           LPS      LPS  days hr:min    10^6 ltr    10^6 ltr     Percent
  -------------------------------------------------------------------------------------------------
  WS02003060           JUNCTION     16.53   557.13     0  01:45       0.476        8.03       0.024
  WS02003066           JUNCTION      0.00   540.01     0  01:44           0        7.56       0.017
  WS02003067           JUNCTION      0.00   539.88     0  01:44           0        7.56       0.053
  WS02003069           JUNCTION      0.32   556.97     0  01:45     0.00922        8.04       0.043
  WS02003072           JUNCTION      0.00   556.52     0  01:46           0        8.04       0.081
  WS02003073           JUNCTION      1.82   558.29     0  01:47      0.0524        8.08       0.063
  WS02004401           JUNCTION      0.00   540.96     0  02:28           0        7.65       0.129
  WS02004402           JUNCTION      0.00   541.26     0  03:02           0        7.64       0.132
  WS02004403           JUNCTION      0.00   544.15     0  02:27           0        7.63       0.127
  WS02004404           JUNCTION      0.16   562.45     0  01:44     0.00467        7.62       0.064
  WS02004405           JUNCTION      0.04   608.92     0  01:41      0.0011        7.62       0.068
  WS02004406           JUNCTION      0.00   545.40     0  01:42           0        7.61       0.265
  WS02004407           JUNCTION      0.00   541.21     0  01:44           0        7.59       0.012
  WS02004409           JUNCTION      0.00   540.70     0  01:41           0        7.59       0.030
  WS02004410           JUNCTION      0.00   540.39     0  01:43           0        7.59       0.052
  WS02004411           JUNCTION      0.00   540.23     0  01:43           0        7.59       0.068
  WS02004412           JUNCTION      0.00   540.17     0  01:44           0        7.58       0.094
  WS02004413           JUNCTION      0.00   540.39     0  01:44           0        7.57       0.167
  WS02006109           JUNCTION      1.23   558.02     0  01:51      0.0354        7.69       0.101
  WS02006110           JUNCTION      0.00   557.72     0  01:51           0        7.68       0.076
  WS02006111           JUNCTION      0.00   560.94     0  03:18           0        7.67       0.008
  WS02006112           JUNCTION      0.00   543.80     0  01:58           0        7.67       0.230
  WS02006113           JUNCTION      0.00   567.14     0  03:01           0        7.68       0.023
  WS02006115           JUNCTION      0.00   554.00     0  03:40           0        7.66       0.081
  WS02006116           JUNCTION      0.00   540.56     0  02:00           0        7.65       0.027
  WS02006228           JUNCTION      0.00   556.79     0  01:51           0        7.66       0.039
  WS02006229           JUNCTION      0.00   556.45     0  01:51           0        7.66       0.053
  WS02006230           JUNCTION     10.28   591.65     0  03:00       0.296        7.66       0.033
  WS02006231           JUNCTION      0.00   574.13     0  03:33           0        7.37      -0.014
  WS02006232           JUNCTION      0.00   573.22     0  03:33           0        7.37       0.109
  WS02006234           JUNCTION      0.00   568.00     0  02:45           0        7.37      -0.100
  WS02006235           JUNCTION      0.00   561.76     0  02:45           0        7.39       0.070
  WS02006238           JUNCTION      0.00   425.34     0  03:45           0        5.91      -0.060
  WS02006239           JUNCTION      0.00   426.34     0  03:45           0        5.89      -0.088
  WS02006240           JUNCTION      0.00   424.82     0  03:45           0        5.87      -0.044
  WS02006242           JUNCTION      0.00   424.39     0  03:45           0        5.87      -0.005
  WS02006243           JUNCTION      0.00   423.76     0  03:45           0        5.87      -0.043
  WS02006245           JUNCTION      0.00   422.49     0  03:45           0        5.88       0.158
  WS02006247           JUNCTION      0.00   422.29     0  03:45           0        5.88       0.009
  WS02006248           JUNCTION      0.00   422.94     0  03:45           0        5.88       0.033
  WS02006249           JUNCTION      0.00   459.02     0  00:00           0        6.36       0.105
  WS02006251           JUNCTION      0.08   407.07     0  03:45     0.00222        6.37       0.001
  WS02006252           JUNCTION      0.00   400.00     0  00:00           0        6.36      -0.031
  WS02006256           JUNCTION      0.00   300.00     0  00:00           0        2.27      -0.462
  WSF200               JUNCTION      0.00   540.12     0  01:45           0        7.56       0.005
  YS02001580           JUNCTION      0.00   349.39     0  01:05           0     0.00532      -9.452
  YS02001583           JUNCTION      0.00   354.76     0  01:04           0      0.0159     -12.401
  YS02001586           JUNCTION   1452.71  1452.71     0  01:34        6.73        6.75       0.021
  YS02001590           JUNCTION      0.00   360.33     0  01:04           0         2.7      -0.045
  YS02001593           JUNCTION      0.00   368.38     0  01:04           0         2.7       0.018
  YS02001596           JUNCTION      0.00   318.00     0  02:39           0         2.7      -0.031
  YS02001600           JUNCTION      0.00   318.12     0  02:26           0        2.72       0.029
  YS02001601           JUNCTION   2053.47  2370.97     0  01:31        8.82        11.5       0.003
  YS02001602           JUNCTION      0.00   637.71     0  01:04           0        3.61       0.016
  YS02001605           JUNCTION      0.00   638.05     0  01:04           0        3.16       0.022
  YS02001607           JUNCTION      0.00   637.64     0  01:04           0        3.16       0.036
  YS02001610           JUNCTION      0.00   955.43     0  01:48           0        5.68       0.034
  YS02001613           JUNCTION      0.00   620.38     0  01:50           0        3.51       0.028
  YS02001616           JUNCTION      0.00   624.92     0  01:50           0        3.53       0.010
  YS02001619           JUNCTION   2445.99  2445.99     0  01:33        10.9        11.9      -0.005
  YS02001622           JUNCTION      0.00  1152.98     0  01:05           0        7.98      -0.009
  YS02001625           JUNCTION      0.00  1505.50     0  01:56           0        9.84       0.061
  YS02001629           JUNCTION      0.00   810.42     0  01:05           0        4.03       0.058
  YS02001633           JUNCTION   1529.43  1529.43     0  01:31        6.53        7.99       0.034
  YS02001641           JUNCTION      0.00  1108.51     0  01:06           0        5.42       0.045
  YS02001644           JUNCTION   1334.48  2473.26     0  01:32        5.69        11.7       0.014
  YS02001647           JUNCTION      0.00  1837.59     0  01:06           0        4.73       0.002
  YS02001649           JUNCTION      0.00  2178.06     0  01:06           0        9.42      -0.004
  YS02001652           JUNCTION      0.00  1253.98     0  01:31           0        5.33      -0.103
  YS02001655           JUNCTION      0.15  1253.96     0  01:31     0.00443        5.34       0.056
  YS02001658           JUNCTION      0.00  1253.79     0  01:31           0        5.33       0.001
  YS02001661           JUNCTION      0.00  1253.81     0  01:31           0        5.32      -0.278
  YS02001664           JUNCTION   1254.01  1254.01     0  01:31        5.32        5.32       0.029
  YS02001745           JUNCTION    733.01   745.65     0  01:07        3.12        3.12       0.074
  YS02001748           JUNCTION      0.04   944.96     0  01:07      0.0013        3.12      -0.145
  YS02001751           JUNCTION      0.01   901.26     0  01:06    0.000317        3.13       0.098
  YS02001754           JUNCTION      0.26   869.39     0  01:06     0.00749        3.15      -0.163
  YS02001757           JUNCTION      0.00  3621.26     0  01:08           0        19.3       0.036
  YS02001759           JUNCTION   1022.25  1568.68     0  01:07        4.34         7.4      -0.010
  YS02001762           JUNCTION      0.00   803.14     0  01:07           0        3.05      -0.018
  YS02001765           JUNCTION      0.00   802.64     0  01:07           0        3.05      -0.008
  YS02001767           JUNCTION      0.54   804.89     0  01:07      0.0154        3.04      -0.008
  YS02001770           JUNCTION   1528.63  1528.63     0  01:31        6.52        6.57      -0.022
  YS02001774           JUNCTION      0.00   852.13     0  01:41           0        3.09       0.030
  YS02001779           JUNCTION      0.01   851.74     0  01:38    0.000144        3.04      -0.017
  YS02001783           JUNCTION      0.00  1165.70     0  01:16           0           9       0.003
  YS02001784           JUNCTION      1.06  1166.96     0  01:16      0.0305        9.03       0.007
  YS02001786           JUNCTION      0.06  1166.24     0  01:16     0.00162        9.03       0.007
  YS02001788           JUNCTION      0.07  1166.71     0  01:29     0.00204        9.04       0.003
  YS02001790           JUNCTION      0.15  1206.89     0  01:06     0.00446        9.04       0.044
  YS02001791           JUNCTION      0.00  1300.83     0  01:22           0        9.04      -0.062
  YS02001793           JUNCTION      0.00  1288.77     0  01:06           0        9.04       0.002
  YS02001882           JUNCTION      0.00   184.79     0  01:05           0      0.0134       4.919
  YS02001884           JUNCTION      0.00   348.88     0  01:05           0      0.0497       5.070
  YS02001887           JUNCTION   1039.90  1040.24     0  01:17        4.44        4.47       0.088
  YS02001890           JUNCTION      0.00  1039.94     0  01:30           0        4.43       0.109
  YS02001895           JUNCTION      0.00   698.08     0  01:05           0        3.17       0.130
  YS02001898           JUNCTION      0.00   616.22     0  01:05           0        3.16      -0.071
  YS02001901           JUNCTION      0.00   538.80     0  01:06           0        3.18       0.118
  YS02001904           JUNCTION      0.00   538.32     0  01:06           0        3.21       0.076
  YS02001907           JUNCTION      0.00  2879.35     0  01:29           0        13.1       0.123
  YS02001910           JUNCTION      0.00  1993.17     0  01:39           0        9.35       0.080
  YS02001915           JUNCTION   1455.92  2221.25     0  01:31        6.22        9.64       0.011
  YS02001918           JUNCTION      0.00  1105.65     0  01:06           0        3.46       0.005
  YS02001920           JUNCTION      2.87  1021.64     0  01:06      0.0827        3.43       0.009
  YS02001923           JUNCTION      0.04  1363.42     0  01:06     0.00109        3.32      -0.044
  YS02001926           JUNCTION      0.05  1557.95     0  01:06      0.0015        3.29       0.013
  YS02001929           JUNCTION    762.42   984.42     0  01:06        3.27        3.28      -0.040
  YS02006553           JUNCTION      0.00   803.04     0  03:01           0        3.75       0.315
  YS02006556           JUNCTION      0.00   803.12     0  03:01           0        3.78       0.210
  YS02006558           JUNCTION   1534.20  1534.20     0  01:31        6.55        9.67       0.032
  YS02006561           JUNCTION      0.00  1184.28     0  01:06           0           9       0.001
  YS02163301           JUNCTION      0.00   809.41     0  01:31           0        4.05       0.029
  YS02163601           JUNCTION      0.11  1114.21     0  01:06     0.00317        5.39       0.083
  YS02164001           JUNCTION      0.00  1113.02     0  01:06           0         5.4       0.036
  CC-1                 OUTFALL       0.00   683.00     0  00:00           0        7.05       0.000
  CC-2                 OUTFALL       0.00   683.00     0  00:00           0        6.68       0.000
  JK-1                 OUTFALL       0.00  1000.00     0  00:00           0        5.74       0.000
  JK-2                 OUTFALL       0.00  1000.00     0  00:00           0        1.11       0.000
  WSC                  OUTFALL       0.00   558.21     0  01:48           0        8.08       0.000
  CC-storage           STORAGE       0.00  3622.10     0  01:08           0        21.5      -0.155
  JK-storage           STORAGE       0.00  1300.82     0  01:29           0        9.19      -0.118
  
  
  **********************
  Node Surcharge Summary
  **********************
  
  Surcharging occurs when water rises above the top of the highest conduit.
  ---------------------------------------------------------------------
                                               Max. Height   Min. Depth
                                   Hours       Above Crown    Below Rim
  Node                 Type      Surcharged         Meters       Meters
  ---------------------------------------------------------------------
  WS02004404           JUNCTION        0.09          0.040        2.740
  WS02006109           JUNCTION        3.19          0.371        1.449
  WS02006110           JUNCTION        1.64          0.335        1.515
  WS02006112           JUNCTION        1.96          0.117        1.563
  WS02006228           JUNCTION        3.17          0.434        1.766
  WS02006229           JUNCTION        3.20          0.513        1.937
  WS02006230           JUNCTION        1.65          0.472        1.098
  WS02006231           JUNCTION        1.88          0.804        0.726
  WS02006232           JUNCTION        3.33          0.692        0.788
  WS02006234           JUNCTION        2.29          1.048        0.192
  WS02006235           JUNCTION        3.14          0.846        0.444
  WS02006238           JUNCTION        3.24          0.884        0.546
  WS02006239           JUNCTION        3.18          0.848        0.442
  WS02006240           JUNCTION        3.21          0.817        0.573
  WS02006242           JUNCTION        3.38          0.820        0.000
  WS02006243           JUNCTION        3.23          0.697        0.073
  WS02006245           JUNCTION        3.23          0.602        0.248
  WS02006247           JUNCTION        3.27          0.544        0.216
  WS02006248           JUNCTION        3.21          0.380        0.000
  WS02006249           JUNCTION        3.24          0.390        0.000
  WS02006251           JUNCTION        2.02          0.342        0.838
  WS02006252           JUNCTION        3.67          1.100        0.000
  WS02006256           JUNCTION        6.51          2.050        0.000
  YS02001580           JUNCTION        2.02          0.450        0.000
  YS02001583           JUNCTION        2.03          0.500        0.000
  YS02001586           JUNCTION        2.13          0.510        0.000
  YS02001590           JUNCTION        2.17          0.750        0.000
  YS02001593           JUNCTION        2.17          0.823        0.017
  YS02001596           JUNCTION        2.23          1.032        0.038
  YS02001600           JUNCTION        2.32          1.190        0.000
  YS02001601           JUNCTION        2.50          1.440        0.000
  YS02001602           JUNCTION        2.46          1.270        0.000
  YS02001605           JUNCTION        2.44          1.180        0.000
  YS02001607           JUNCTION        2.20          0.680        0.000
  YS02001610           JUNCTION        2.22          0.680        0.000
  YS02001613           JUNCTION        2.20          0.700        0.000
  YS02001616           JUNCTION        2.17          0.610        0.000
  YS02001619           JUNCTION        2.16          0.610        0.000
  YS02001622           JUNCTION        2.17          0.620        0.000
  YS02001625           JUNCTION        2.31          0.780        0.000
  YS02001629           JUNCTION        2.14          0.470        0.000
  YS02001633           JUNCTION        2.36          1.060        0.000
  YS02001641           JUNCTION        2.37          1.100        0.000
  YS02001644           JUNCTION        2.36          0.920        0.000
  YS02001647           JUNCTION        2.24          0.900        0.000
  YS02001649           JUNCTION        2.37          1.050        0.000
  YS02001652           JUNCTION        2.22          1.130        0.000
  YS02001655           JUNCTION        2.09          1.200        0.000
  YS02001658           JUNCTION        1.90          1.300        0.000
  YS02001661           JUNCTION        0.84          1.390        0.000
  YS02001664           JUNCTION        0.01          0.700        0.610
  YS02001745           JUNCTION        0.01          1.350        0.000
  YS02001748           JUNCTION        1.89          1.190        0.000
  YS02001751           JUNCTION        2.05          1.200        0.000
  YS02001754           JUNCTION        2.18          1.150        0.000
  YS02001757           JUNCTION        2.45          1.210        0.000
  YS02001759           JUNCTION        2.38          1.210        0.000
  YS02001762           JUNCTION        2.35          1.150        0.000
  YS02001765           JUNCTION        2.32          1.100        0.000
  YS02001767           JUNCTION        2.29          1.030        0.000
  YS02001770           JUNCTION        2.27          0.920        0.000
  YS02001774           JUNCTION        2.34          1.050        0.000
  YS02001779           JUNCTION        2.16          0.680        0.000
  YS02001783           JUNCTION        1.99          0.949        0.651
  YS02001784           JUNCTION        1.98          0.810        0.680
  YS02001786           JUNCTION        1.92          0.928        0.502
  YS02001882           JUNCTION        1.97          0.830        0.000
  YS02001884           JUNCTION        1.97          0.870        0.000
  YS02001887           JUNCTION        1.99          0.950        0.000
  YS02001890           JUNCTION        2.00          0.760        0.000
  YS02001895           JUNCTION        1.96          0.750        0.000
  YS02001898           JUNCTION        1.95          0.740        0.000
  YS02001901           JUNCTION        1.98          0.870        0.000
  YS02001904           JUNCTION        1.98          0.850        0.000
  YS02001907           JUNCTION        2.07          0.950        0.000
  YS02001910           JUNCTION        2.00          1.087        0.013
  YS02001915           JUNCTION        1.97          1.000        0.000
  YS02001918           JUNCTION        1.92          0.810        0.000
  YS02001920           JUNCTION        1.92          1.140        0.000
  YS02001923           JUNCTION        0.92          0.820        0.000
  YS02001926           JUNCTION        1.03          0.900        0.000
  YS02001929           JUNCTION        0.66          0.780        0.000
  YS02006553           JUNCTION        2.08          1.111        0.079
  YS02006556           JUNCTION        2.04          1.196        0.154
  YS02006558           JUNCTION        2.03          1.212        0.188
  YS02006561           JUNCTION        1.90          0.797        0.353
  YS02163301           JUNCTION        2.34          1.030        0.000
  YS02163601           JUNCTION        2.40          1.080        0.000
  YS02164001           JUNCTION        2.36          1.100        0.000
  
  
  *********************
  Node Flooding Summary
  *********************
  
  Flooding refers to all water that overflows a node, whether it ponds or not.
  --------------------------------------------------------------------------
                                                             Total   Maximum
                                 Maximum   Time of Max       Flood    Ponded
                        Hours       Rate    Occurrence      Volume     Depth
  Node                 Flooded       LPS   days hr:min    10^6 ltr    Meters
  --------------------------------------------------------------------------
  WS02006242              0.01      3.80      0  02:15       0.000     0.000
  WS02006248              0.03     27.37      0  02:15       0.001     0.000
  WS02006249              1.97     96.51      0  01:14       0.475     0.000
  WS02006252              0.01    245.63      0  00:00       0.000     0.000
  WS02006256              2.09    293.19      0  00:00       0.786     0.000
  YS02001580              0.01    334.73      0  01:05       0.002     0.000
  YS02001583              0.01    286.51      0  01:05       0.001     0.000
  YS02001586              1.97   1135.19      0  01:34       4.039     0.000
  YS02001590              0.01    225.60      0  01:04       0.001     0.000
  YS02001600              0.01     24.88      0  01:04       0.000     0.000
  YS02001601              2.07   1973.16      0  01:31       7.904     0.000
  YS02001602              2.05     62.31      0  01:50       0.451     0.000
  YS02001605              0.01      9.33      0  01:06       0.000     0.000
  YS02001607              0.01    480.10      0  01:06       0.005     0.000
  YS02001610              1.99    955.27      0  01:48       4.701     0.000
  YS02001613              0.01    313.73      0  01:06       0.001     0.000
  YS02001616              0.17    516.06      0  01:06       0.006     0.000
  YS02001619              0.80    776.36      0  01:33       1.323     0.000
  YS02001622              0.01    503.46      0  01:06       0.004     0.000
  YS02001625              2.02   1505.28      0  01:56       8.384     0.000
  YS02001629              0.86    484.42      0  01:06       0.723     0.000
  YS02001633              0.01    312.69      0  01:05       0.000     0.000
  YS02001641              0.01    418.56      0  01:06       0.000     0.000
  YS02001644              1.87   2473.23      0  01:32       7.625     0.000
  YS02001647              0.01    335.32      0  01:06       0.001     0.000
  YS02001649              0.01    619.51      0  01:06       0.002     0.000
  YS02001652              0.01    760.20      0  01:06       0.002     0.000
  YS02001655              0.01    465.89      0  01:07       0.001     0.000
  YS02001658              0.01    381.78      0  01:07       0.001     0.000
  YS02001661              0.01    240.87      0  01:07       0.000     0.000
  YS02001745              0.01    371.09      0  01:07       0.000     0.000
  YS02001748              0.01    500.00      0  01:07       0.002     0.000
  YS02001751              0.01    406.72      0  01:07       0.001     0.000
  YS02001754              0.01    551.72      0  01:06       0.001     0.000
  YS02001757              0.01    551.08      0  01:06       0.001     0.000
  YS02001759              0.01    230.38      0  01:06       0.000     0.000
  YS02001762              0.01    314.33      0  01:06       0.000     0.000
  YS02001765              0.01    298.51      0  01:06       0.000     0.000
  YS02001767              0.01    322.61      0  01:06       0.001     0.000
  YS02001770              0.51    403.95      0  01:32       0.471     0.000
  YS02001774              0.01    251.00      0  01:06       0.000     0.000
  YS02001779              1.51    851.46      0  01:38       3.028     0.000
  YS02001882              0.01    117.09      0  01:05       0.001     0.000
  YS02001884              0.01    251.58      0  01:05       0.000     0.000
  YS02001887              0.01    120.99      0  01:05       0.000     0.000
  YS02001890              1.05    523.55      0  01:30       1.262     0.000
  YS02001895              0.01    475.07      0  01:05       0.001     0.000
  YS02001898              0.01    542.66      0  01:05       0.002     0.000
  YS02001901              0.01     67.87      0  01:05       0.000     0.000
  YS02001904              0.01     94.84      0  01:05       0.000     0.000
  YS02001907              1.88   2879.34      0  01:29       9.975     0.000
  YS02001915              0.41    228.81      0  01:31       0.236     0.000
  YS02001918              0.01    588.51      0  01:06       0.005     0.000
  YS02001920              0.01    733.05      0  01:06       0.001     0.000
  YS02001923              0.01    851.19      0  01:06       0.003     0.000
  YS02001926              0.01    851.45      0  01:06       0.003     0.000
  YS02001929              0.01    936.28      0  01:07       0.007     0.000
  YS02163301              0.01     52.93      0  01:05       0.000     0.000
  YS02163601              0.01    335.71      0  01:05       0.001     0.000
  YS02164001              0.01    173.81      0  01:06       0.000     0.000
  CC-storage              0.33     42.18      0  02:39       0.028     0.000
  
  
  **********************
  Storage Volume Summary
  **********************
  
  ------------------------------------------------------------------------------------------------
                         Average    Avg   Evap  Exfil     Maximum    Max    Time of Max    Maximum
                          Volume   Pcnt   Pcnt   Pcnt      Volume   Pcnt     Occurrence    Outflow
  Storage Unit           1000 m³   Full   Loss   Loss     1000 m³   Full    days hr:min        LPS
  ------------------------------------------------------------------------------------------------
  CC-storage               3.090   48.2    0.0    0.0       6.410  100.0       0  02:38    1783.53
  JK-storage               0.143   49.2    0.0    0.0       0.213   73.1       0  01:35    2300.00
  
  
  ***********************
  Outfall Loading Summary
  ***********************
  
  -----------------------------------------------------------
                         Flow       Avg       Max       Total
                         Freq      Flow      Flow      Volume
  Outfall Node           Pcnt       LPS       LPS    10^6 ltr
  -----------------------------------------------------------
  CC-1                  33.24    683.00    683.00       7.053
  CC-2                  29.92    683.00    683.00       6.679
  JK-1                  18.27   1000.00   1000.00       5.738
  JK-2                   3.59   1000.00   1000.00       1.110
  WSC                   99.97    324.42    558.21       8.076
  -----------------------------------------------------------
  System                37.00   3690.42   3918.00      28.656
  
  
  ********************
  Link Flow Summary
  ********************
  
  -----------------------------------------------------------------------------
                                 Maximum  Time of Max   Maximum    Max/    Max/
                                  |Flow|   Occurrence   |Veloc|    Full    Full
  Link                 Type          LPS  days hr:min     m/sec    Flow   Depth
  -----------------------------------------------------------------------------
  1                    CONDUIT    558.21     0  01:48      2.83    0.19    0.30
  WS02003060WS02003069 CONDUIT    556.65     0  01:45      1.65    0.22    0.34
  WS02003066WSF200     CONDUIT    540.12     0  01:45      2.86    0.09    0.22
  WS02003067WS02003066 CONDUIT    540.01     0  01:44      1.21    0.17    0.42
  WS02003069WS02003072 CONDUIT    556.52     0  01:46      1.37    0.27    0.39
  WS02003072WS02003073 CONDUIT    556.47     0  01:47      1.44    1.20    0.37
  WS02004401WS02004402 CONDUIT    541.26     0  03:02      0.98    0.65    0.89
  WS02004402WS02004403 CONDUIT    544.15     0  02:27      0.97    0.78    0.91
  WS02004403WS02004404 CONDUIT    562.29     0  01:44      0.92    0.41    0.96
  WS02004404WS02004405 CONDUIT    608.88     0  01:41      1.08    5.97    0.98
  WS02004405WS02004406 CONDUIT    545.40     0  01:42      0.99    1.08    0.96
  WS02004406WS02004407 CONDUIT    541.21     0  01:44      1.04    0.24    0.63
  WS02004407WS02004409 CONDUIT    540.70     0  01:41      1.60    0.19    0.48
  WS02004409WS02004410 CONDUIT    540.39     0  01:43      1.05    0.70    0.68
  WS02004410WS02004411 CONDUIT    540.23     0  01:43      1.02    0.74    0.69
  WS02004411WS02004412 CONDUIT    540.17     0  01:44      1.00    0.77    0.70
  WS02004412WS02004413 CONDUIT    540.39     0  01:44      0.82    0.36    0.78
  WS02004413WS02003067 CONDUIT    539.88     0  01:44      1.11    0.23    0.59
  WS02006109WS02006110 CONDUIT    557.72     0  01:51      1.11    1.07    1.00
  WS02006110WS02006113 CONDUIT    567.14     0  03:01      1.37    0.52    0.78
  WS02006111WS02006112 CONDUIT    543.80     0  01:58      1.81    0.26    0.67
  WS02006112WS02006115 CONDUIT    554.00     0  03:40      0.88    0.33    0.88
  WS02006113WS02006111 CONDUIT    560.94     0  03:18      2.47    0.67    0.46
  WS02006115WS02006116 CONDUIT    540.56     0  02:00      1.15    0.69    0.79
  WS02006116WS02004401 CONDUIT    540.96     0  02:28      1.00    0.75    0.87
  WS02006228WS02006109 CONDUIT    556.79     0  01:51      1.11    2.43    1.00
  WS02006229WS02006228 CONDUIT    556.79     0  01:51      1.14    1.84    1.00
  WS02006230WS02006229 CONDUIT    556.45     0  01:51      1.45   12.38    1.00
  WS02006231WS02006230 CONDUIT    581.37     0  03:00      1.58    8.82    1.00
  WS02006232WS02006231 CONDUIT    574.13     0  03:33      1.50    1.20    1.00
  WS02006234WS02006232 CONDUIT    573.22     0  03:33      1.49    1.16    1.00
  WS02006235WS02006234 CONDUIT    568.00     0  02:45      1.48    5.99    1.00
  WS02006238WS02006235 CONDUIT    425.74     0  03:05      1.45    0.95    1.00
  WS02006239WS02006238 CONDUIT    425.34     0  03:45      1.11    1.36    1.00
  WS02006240WS02006239 CONDUIT    426.34     0  03:45      1.24    1.34    1.00
  WS02006242WS02006240 CONDUIT    424.82     0  03:45      1.13    1.69    1.00
  WS02006243WS02006242 CONDUIT    424.39     0  03:45      1.40    0.91    1.00
  WS02006245WS02006243 CONDUIT    423.76     0  03:45      1.45    1.25    1.00
  WS02006247WS02006245 CONDUIT    422.49     0  03:45      1.43    3.35    1.00
  WS02006248WS02006247 CONDUIT    422.29     0  03:45      1.44    0.92    1.00
  WS02006249WS02006248 CONDUIT    422.94     0  03:45      1.36    2.32    1.00
  WS02006251WS02006249 CONDUIT    459.02     0  00:00      1.99    1.32    1.00
  WS02006252WS02006251 CONDUIT    406.99     0  03:45     24.61    1.49    1.00
  WS02006256WS02006235 CONDUIT    288.91     0  00:00      4.23    3.06    1.00
  WSF200WS02003060     CONDUIT    540.60     0  01:45      2.07    0.12    0.28
  YS02001580YS02001583 CONDUIT    349.39     0  01:05      1.32    1.35    1.00
  YS02001583YS02001586 CONDUIT    354.76     0  01:04      1.51    0.54    1.00
  YS02001586YS02001590 CONDUIT    318.55     0  02:25      1.48    0.56    1.00
  YS02001590YS02001593 CONDUIT    318.32     0  02:42      1.13    2.00    1.00
  YS02001593YS02001596 CONDUIT    318.00     0  02:39      1.64    0.50    1.00
  YS02001596YS02001600 CONDUIT    318.12     0  02:26      1.22    0.62    1.00
  YS02001600YS02001601 CONDUIT    318.33     0  01:50      1.13    0.55    1.00
  YS02001601YS02001602 CONDUIT    637.71     0  01:04      2.26    2.30    1.00
  YS02001602YS02001605 CONDUIT    638.05     0  01:04      2.26   13.50    1.00
  YS02001605YS02001607 CONDUIT    637.64     0  01:04      2.26    3.50    1.00
  YS02001607YS02001610 CONDUIT    739.63     0  01:05      1.10    0.70    1.00
  YS02001610YS02001613 CONDUIT    619.95     0  01:06      0.93    0.71    1.00
  YS02001613YS02001616 CONDUIT    620.38     0  01:50      0.99    0.53    1.00
  YS02001616YS02001619 CONDUIT    624.92     0  01:50      1.00    1.08    1.00
  YS02001619YS02001622 CONDUIT   1152.98     0  01:05      2.38    1.70    1.00
  YS02001622YS02001625 CONDUIT   1053.72     0  01:56      1.36    0.56    1.00
  YS02001625YS02001629 CONDUIT    810.42     0  01:05      1.21    0.39    1.00
  YS02001629YS02163301 CONDUIT    809.46     0  01:31      1.03    1.00    1.00
  YS02001633YS02163601 CONDUIT   1114.10     0  01:06      1.42    1.17    1.00
  YS02001641YS02001644 CONDUIT   1106.13     0  01:06      1.41    3.58    1.00
  YS02001644YS02001647 CONDUIT   1837.59     0  01:06      2.34    1.08    1.00
  YS02001647YS02001649 CONDUIT   1842.51     0  01:06      2.35    0.97    1.00
  YS02001649YS02001757 CONDUIT   1979.47     0  01:07      2.52    1.20    1.00
  YS02001652YS02001649 CONDUIT   1253.97     0  01:31      1.80    0.62    1.00
  YS02001655YS02001652 CONDUIT   1253.98     0  01:31      2.20    0.61    1.00
  YS02001658YS02001655 CONDUIT   1253.81     0  01:31      2.38    0.53    1.00
  YS02001661YS02001658 CONDUIT   1253.79     0  01:31      2.67    0.49    1.00
  YS02001664YS02001661 CONDUIT   1253.81     0  01:31      2.67    0.39    1.00
  YS02001745YS02001748 CONDUIT    732.81     0  01:30      2.60    0.28    1.00
  YS02001748YS02001751 CONDUIT    732.81     0  01:30      2.09    0.37    1.00
  YS02001751YS02001754 CONDUIT    732.80     0  01:30      2.08    0.35    1.00
  YS02001754YS02001757 CONDUIT    733.04     0  01:30      1.50    0.30    1.00
  YS02001757CaochengTiaoxuchi CONDUIT   3622.10     0  01:08      5.22    1.57    1.00
  YS02001759YS02001757 CONDUIT   1568.22     0  01:07      2.00    1.11    1.00
  YS02001762YS02001759 CONDUIT    802.73     0  01:07      1.02    0.92    1.00
  YS02001765YS02001762 CONDUIT    803.14     0  01:07      1.02    0.75    1.00
  YS02001767YS02001765 CONDUIT    802.64     0  01:07      1.02    1.01    1.00
  YS02001770YS02001767 CONDUIT    804.36     0  01:07      1.12    3.19    1.00
  YS02001774YS02001770 CONDUIT    852.13     0  01:41      1.08    0.54    1.00
  YS02001779YS02001774 CONDUIT    851.73     0  01:38      1.08    0.43    1.00
  YS02001783YS02001784 CONDUIT   1165.90     0  01:16      2.32    1.61    1.00
  YS02001784YS02001785 CONDUIT   1166.19     0  01:16      2.32    2.71    1.00
  YS02001786YS02001788 CONDUIT   1166.64     0  01:29      2.49    2.25    0.91
  YS02001788YS02001790 CONDUIT   1206.73     0  01:06      2.74    0.89    0.84
  YS02001790YS02001791 CONDUIT   1300.83     0  01:22      3.45    1.42    0.71
  YS02001791YS02001793 CONDUIT   1288.77     0  01:06      6.83    0.55    0.45
  YS02001793JiankangQianchi CONDUIT   1300.82     0  01:29      2.59    0.10    0.65
  YS02001882YS02001884 CONDUIT    184.79     0  01:05      0.65    0.21    1.00
  YS02001884YS02001887 CONDUIT    348.88     0  01:05      0.65    0.46    1.00
  YS02001887YS02001890 CONDUIT   1039.94     0  01:30      1.32    1.78    1.00
  YS02001890YS02001895 CONDUIT    698.08     0  01:05      0.89    0.33    1.00
  YS02001895YS02001898 CONDUIT    600.41     0  01:05      0.97    1.04    1.00
  YS02001898YS02001901 CONDUIT    538.80     0  01:06      0.72    0.35    1.00
  YS02001901YS02001904 CONDUIT    538.32     0  01:06      1.07    0.83    1.00
  YS02001904YS02001907 CONDUIT    538.82     0  01:06      0.76    0.19    1.00
  YS02001907YS02006553 CONDUIT    803.04     0  03:01      0.89    0.94    1.00
  YS02001910YS02001907 CONDUIT   1992.98     0  01:17      2.54    1.12    1.00
  YS02001915YS02001910 CONDUIT   1993.17     0  01:39      2.54    0.99    1.00
  YS02001918YS02001915 CONDUIT   1105.65     0  01:06      1.42    0.61    1.00
  YS02001920YS02001918 CONDUIT   1018.77     0  01:06      1.30    0.99    1.00
  YS02001923YS02001920 CONDUIT   1017.37     0  01:06      1.39    0.46    1.00
  YS02001926YS02001923 CONDUIT   1243.74     0  01:06      1.75    1.78    1.00
  YS02001929YS02001926 CONDUIT    762.43     0  01:32      1.32    0.36    1.00
  YS02006553YS02006556 CONDUIT    803.12     0  03:01      1.02    0.69    1.00
  YS02006556YS02006558 CONDUIT    803.75     0  03:01      1.02    0.63    1.00
  YS02006558YS02006561 CONDUIT   1184.28     0  01:06      4.20    2.62    1.00
  YS02006561YS02001783 CONDUIT   1165.70     0  01:16      2.32    0.60    1.00
  YS02163301YS02001633 CONDUIT    809.41     0  01:31      1.03    0.76    1.00
  YS02163601YS02164001 CONDUIT   1113.02     0  01:06      1.42    0.99    1.00
  YS02164001YS02001641 CONDUIT   1108.51     0  01:06      1.41    1.51    1.00
  CC-R1                PUMP       683.00     0  00:00              1.00
  CC-R2                PUMP       683.00     0  00:00              1.00
  CC-S1                PUMP       200.00     0  00:00              1.00
  CC-S2                PUMP       200.00     0  00:00              1.00
  JK-R1                PUMP      1000.00     0  00:00              1.00
  JK-R2                PUMP      1000.00     0  00:00              1.00
  JK-S                 PUMP       300.00     0  00:00              1.00
  
  
  ***************************
  Flow Classification Summary
  ***************************
  
  -------------------------------------------------------------------------------------
                      Adjusted    ---------- Fraction of Time in Flow Class ---------- 
                       /Actual         Up    Down  Sub   Sup   Up    Down  Norm  Inlet 
  Conduit               Length    Dry  Dry   Dry   Crit  Crit  Crit  Crit  Ltd   Ctrl  
  -------------------------------------------------------------------------------------
  1                       1.00   0.00  0.00  0.00  0.00  1.00  0.00  0.00  0.43  0.00
  WS02003060WS02003069    1.00   0.00  0.00  0.00  0.99  0.01  0.00  0.00  0.54  0.00
  WS02003066WSF200        1.00   0.13  0.00  0.00  0.00  0.87  0.00  0.00  0.65  0.00
  WS02003067WS02003066    1.00   0.10  0.02  0.00  0.88  0.00  0.00  0.00  0.00  0.00
  WS02003069WS02003072    1.00   0.00  0.00  0.00  0.99  0.01  0.00  0.00  0.57  0.00
  WS02003072WS02003073    1.00   0.00  0.00  0.00  0.00  0.00  0.00  1.00  0.00  0.00
  WS02004401WS02004402    1.00   0.02  0.00  0.00  0.98  0.00  0.00  0.00  0.00  0.00
  WS02004402WS02004403    1.00   0.02  0.00  0.00  0.97  0.00  0.00  0.00  0.00  0.00
  WS02004403WS02004404    1.00   0.00  0.03  0.00  0.97  0.00  0.00  0.00  0.00  0.00
  WS02004404WS02004405    1.00   0.00  0.00  0.00  1.00  0.00  0.00  0.00  0.01  0.00
  WS02004405WS02004406    1.00   0.00  0.00  0.00  1.00  0.00  0.00  0.00  0.00  0.00
  WS02004406WS02004407    1.00   0.00  0.05  0.00  0.95  0.00  0.00  0.00  0.00  0.00
  WS02004407WS02004409    1.00   0.05  0.00  0.00  0.94  0.01  0.00  0.00  0.94  0.00
  WS02004409WS02004410    1.00   0.05  0.00  0.00  0.95  0.00  0.00  0.00  0.03  0.00
  WS02004410WS02004411    1.00   0.05  0.00  0.00  0.95  0.00  0.00  0.00  0.01  0.00
  WS02004411WS02004412    1.00   0.05  0.00  0.00  0.95  0.00  0.00  0.00  0.00  0.00
  WS02004412WS02004413    1.00   0.05  0.00  0.00  0.94  0.00  0.00  0.00  0.01  0.00
  WS02004413WS02003067    1.00   0.06  0.04  0.00  0.00  0.00  0.90  0.00  0.00  0.00
  WS02006109WS02006110    1.00   0.00  0.01  0.00  0.98  0.00  0.01  0.00  0.00  0.00
  WS02006110WS02006113    1.00   0.01  0.01  0.00  0.98  0.00  0.00  0.00  0.00  0.00
  WS02006111WS02006112    1.00   0.02  0.00  0.00  0.98  0.00  0.00  0.00  0.98  0.00
  WS02006112WS02006115    1.00   0.02  0.00  0.00  0.97  0.00  0.00  0.00  0.00  0.00
  WS02006113WS02006111    1.00   0.02  0.00  0.00  0.00  0.98  0.00  0.00  0.18  0.00
  WS02006115WS02006116    1.00   0.02  0.00  0.00  0.97  0.00  0.00  0.01  0.00  0.00
  WS02006116WS02004401    1.00   0.02  0.00  0.00  0.98  0.00  0.00  0.00  0.00  0.00
  WS02006228WS02006109    1.00   0.00  0.00  0.00  1.00  0.00  0.00  0.00  0.00  0.00
  WS02006229WS02006228    1.00   0.00  0.00  0.00  0.99  0.00  0.00  0.01  0.00  0.00
  WS02006230WS02006229    1.00   0.00  0.00  0.00  0.99  0.00  0.00  0.01  0.00  0.00
  WS02006231WS02006230    1.00   0.00  0.00  0.00  0.44  0.00  0.56  0.00  0.00  0.00
  WS02006232WS02006231    1.00   0.00  0.00  0.00  0.99  0.00  0.01  0.00  0.00  0.00
  WS02006234WS02006232    1.00   0.00  0.00  0.00  1.00  0.00  0.00  0.00  0.10  0.00
  WS02006235WS02006234    1.00   0.00  0.00  0.00  0.85  0.00  0.15  0.00  0.00  0.00
  WS02006238WS02006235    1.00   0.00  0.00  0.00  1.00  0.00  0.00  0.00  0.00  0.00
  WS02006239WS02006238    1.00   0.00  0.00  0.00  1.00  0.00  0.00  0.00  0.20  0.00
  WS02006240WS02006239    1.00   0.00  0.00  0.00  0.74  0.00  0.00  0.26  0.01  0.00
  WS02006242WS02006240    1.00   0.00  0.00  0.00  0.99  0.00  0.01  0.00  0.00  0.00
  WS02006243WS02006242    1.00   0.00  0.00  0.00  0.99  0.00  0.00  0.01  0.32  0.00
  WS02006245WS02006243    1.00   0.00  0.00  0.00  0.82  0.00  0.00  0.18  0.00  0.00
  WS02006247WS02006245    1.00   0.00  0.00  0.00  0.99  0.00  0.00  0.01  0.00  0.00
  WS02006248WS02006247    1.00   0.00  0.00  0.00  0.99  0.00  0.00  0.01  0.17  0.00
  WS02006249WS02006248    1.00   0.00  0.00  0.00  0.68  0.00  0.32  0.00  0.00  0.00
  WS02006251WS02006249    1.00   0.00  0.00  0.00  1.00  0.00  0.00  0.00  0.33  0.00
  WS02006252WS02006251    1.00   0.00  0.19  0.00  0.25  0.00  0.56  0.00  0.00  0.00
  WS02006256WS02006235    1.00   0.00  0.00  0.00  1.00  0.00  0.00  0.00  0.00  0.00
  WSF200WS02003060        1.00   0.00  0.13  0.00  0.18  0.70  0.00  0.00  0.28  0.00
  YS02001580YS02001583    1.00   0.13  0.50  0.00  0.36  0.00  0.00  0.00  0.59  0.00
  YS02001583YS02001586    1.00   0.37  0.21  0.00  0.42  0.00  0.00  0.00  0.60  0.00
  YS02001586YS02001590    1.00   0.13  0.00  0.00  0.51  0.03  0.00  0.33  0.27  0.00
  YS02001590YS02001593    1.00   0.13  0.00  0.00  0.28  0.00  0.59  0.00  0.00  0.00
  YS02001593YS02001596    1.00   0.13  0.00  0.00  0.29  0.01  0.00  0.58  0.01  0.00
  YS02001596YS02001600    1.00   0.13  0.00  0.00  0.32  0.01  0.00  0.55  0.02  0.00
  YS02001600YS02001601    1.00   0.13  0.00  0.00  0.87  0.00  0.00  0.00  0.52  0.00
  YS02001601YS02001602    1.00   0.13  0.00  0.00  0.87  0.00  0.00  0.00  0.00  0.00
  YS02001602YS02001605    1.00   0.13  0.00  0.00  0.87  0.00  0.00  0.00  0.00  0.00
  YS02001605YS02001607    1.00   0.13  0.00  0.00  0.87  0.00  0.00  0.00  0.00  0.00
  YS02001607YS02001610    1.00   0.13  0.00  0.00  0.87  0.00  0.00  0.00  0.00  0.00
  YS02001610YS02001613    1.00   0.13  0.00  0.00  0.87  0.00  0.00  0.00  0.00  0.00
  YS02001613YS02001616    1.00   0.13  0.00  0.00  0.87  0.00  0.00  0.00  0.00  0.00
  YS02001616YS02001619    1.00   0.13  0.00  0.00  0.87  0.00  0.00  0.00  0.00  0.00
  YS02001619YS02001622    1.00   0.13  0.00  0.00  0.87  0.00  0.00  0.00  0.25  0.00
  YS02001622YS02001625    1.00   0.13  0.00  0.00  0.87  0.00  0.00  0.00  0.00  0.00
  YS02001625YS02001629    1.00   0.13  0.01  0.00  0.32  0.00  0.54  0.00  0.00  0.00
  YS02001629YS02163301    1.00   0.13  0.00  0.00  0.87  0.00  0.00  0.00  0.00  0.00
  YS02001633YS02163601    1.00   0.00  0.01  0.00  0.99  0.00  0.00  0.00  0.12  0.00
  YS02001641YS02001644    1.00   0.00  0.01  0.00  0.99  0.00  0.00  0.00  0.00  0.00
  YS02001644YS02001647    1.00   0.00  0.13  0.00  0.87  0.00  0.00  0.00  0.00  0.00
  YS02001647YS02001649    1.00   0.00  0.13  0.00  0.66  0.21  0.00  0.00  0.52  0.00
  YS02001649YS02001757    1.00   0.00  0.00  0.00  0.90  0.10  0.00  0.00  0.32  0.00
  YS02001652YS02001649    1.00   0.00  0.00  0.00  1.00  0.00  0.00  0.00  0.62  0.00
  YS02001655YS02001652    1.00   0.00  0.00  0.00  0.35  0.00  0.00  0.65  0.02  0.00
  YS02001658YS02001655    1.00   0.00  0.13  0.00  0.84  0.03  0.00  0.00  0.55  0.00
  YS02001661YS02001658    1.00   0.13  0.00  0.00  0.69  0.18  0.00  0.00  0.58  0.00
  YS02001664YS02001661    1.00   0.13  0.00  0.00  0.86  0.02  0.00  0.00  0.62  0.00
  YS02001745YS02001748    1.00   0.00  0.00  0.00  0.31  0.00  0.00  0.69  0.03  0.00
  YS02001748YS02001751    1.00   0.00  0.00  0.00  0.98  0.02  0.00  0.00  0.67  0.00
  YS02001751YS02001754    1.00   0.00  0.00  0.00  0.35  0.00  0.00  0.65  0.02  0.00
  YS02001754YS02001757    1.00   0.00  0.00  0.00  1.00  0.00  0.00  0.00  0.64  0.00
  YS02001757CaochengTiaoxuchi    1.00   0.00  0.00  0.00  0.98  0.02  0.00  0.00  0.50  0.00
  YS02001759YS02001757    1.00   0.00  0.00  0.00  0.99  0.01  0.00  0.00  0.46  0.00
  YS02001762YS02001759    1.00   0.00  0.00  0.00  1.00  0.00  0.00  0.00  0.03  0.00
  YS02001765YS02001762    1.00   0.00  0.00  0.00  1.00  0.00  0.00  0.00  0.57  0.00
  YS02001767YS02001765    1.00   0.00  0.00  0.00  1.00  0.00  0.00  0.00  0.01  0.00
  YS02001770YS02001767    1.00   0.00  0.00  0.00  1.00  0.00  0.00  0.00  0.00  0.00
  YS02001774YS02001770    1.00   0.00  0.12  0.00  0.73  0.00  0.14  0.00  0.00  0.00
  YS02001779YS02001774    1.00   0.00  0.00  0.00  1.00  0.00  0.00  0.00  0.64  0.00
  YS02001783YS02001784    1.00   0.00  0.13  0.00  0.87  0.00  0.00  0.00  0.52  0.00
  YS02001784YS02001785    1.00   0.00  0.00  0.00  1.00  0.00  0.00  0.00  0.12  0.00
  YS02001786YS02001788    1.00   0.00  0.00  0.00  0.89  0.11  0.00  0.00  0.00  0.00
  YS02001788YS02001790    1.00   0.00  0.00  0.00  0.26  0.74  0.00  0.00  0.72  0.00
  YS02001790YS02001791    1.00   0.00  0.00  0.00  0.01  0.99  0.00  0.00  0.10  0.00
  YS02001791YS02001793    1.00   0.00  0.00  0.00  0.00  1.00  0.00  0.00  0.05  0.00
  YS02001793JiankangQianchi    1.00   0.00  0.00  0.00  0.92  0.08  0.00  0.00  0.79  0.00
  YS02001882YS02001884    1.00   0.13  0.00  0.00  0.87  0.00  0.00  0.00  0.00  0.00
  YS02001884YS02001887    1.00   0.06  0.05  0.00  0.89  0.00  0.00  0.00  0.00  0.00
  YS02001887YS02001890    1.00   0.00  0.00  0.00  0.97  0.00  0.03  0.00  0.00  0.00
  YS02001890YS02001895    1.00   0.00  0.13  0.00  0.87  0.00  0.00  0.00  0.00  0.00
  YS02001895YS02001898    1.00   0.13  0.00  0.00  0.87  0.00  0.00  0.00  0.00  0.00
  YS02001898YS02001901    1.00   0.13  0.00  0.00  0.87  0.00  0.00  0.00  0.00  0.00
  YS02001901YS02001904    1.00   0.13  0.00  0.00  0.87  0.00  0.00  0.00  0.00  0.00
  YS02001904YS02001907    1.00   0.00  0.13  0.00  0.87  0.00  0.00  0.00  0.00  0.00
  YS02001907YS02006553    1.00   0.00  0.02  0.00  0.98  0.00  0.00  0.00  0.00  0.00
  YS02001910YS02001907    1.00   0.00  0.00  0.00  0.97  0.00  0.00  0.03  0.10  0.00
  YS02001915YS02001910    1.00   0.00  0.00  0.00  0.98  0.02  0.00  0.00  0.10  0.00
  YS02001918YS02001915    1.00   0.00  0.01  0.00  0.98  0.02  0.00  0.00  0.61  0.00
  YS02001920YS02001918    1.00   0.00  0.01  0.00  0.99  0.00  0.00  0.00  0.00  0.00
  YS02001923YS02001920    1.00   0.00  0.00  0.00  1.00  0.00  0.00  0.00  0.75  0.00
  YS02001926YS02001923    1.00   0.00  0.07  0.00  0.24  0.00  0.68  0.00  0.00  0.00
  YS02001929YS02001926    1.00   0.00  0.13  0.00  0.87  0.00  0.00  0.00  0.62  0.00
  YS02006553YS02006556    1.00   0.01  0.00  0.00  0.99  0.00  0.00  0.00  0.03  0.00
  YS02006556YS02006558    1.00   0.00  0.00  0.00  1.00  0.00  0.00  0.00  0.00  0.00
  YS02006558YS02006561    1.00   0.13  0.00  0.00  0.24  0.63  0.00  0.00  0.12  0.00
  YS02006561YS02001783    1.00   0.13  0.00  0.00  0.26  0.61  0.00  0.00  0.60  0.00
  YS02163301YS02001633    1.00   0.00  0.13  0.00  0.87  0.00  0.00  0.00  0.00  0.00
  YS02163601YS02164001    1.00   0.00  0.08  0.00  0.92  0.00  0.00  0.00  0.00  0.00
  YS02164001YS02001641    1.00   0.01  0.07  0.00  0.92  0.00  0.00  0.00  0.05  0.00
  
  
  *************************
  Conduit Surcharge Summary
  *************************
  
  ----------------------------------------------------------------------------
                                                           Hours        Hours 
                         --------- Hours Full --------   Above Full   Capacity
  Conduit                Both Ends  Upstream  Dnstream   Normal Flow   Limited
  ----------------------------------------------------------------------------
  WS02003072WS02003073        0.01      0.01      0.01      2.33         0.01
  WS02004403WS02004404        0.01      0.01      0.05      0.01         0.01
  WS02004404WS02004405        0.01      0.05      0.01      5.22         0.01
  WS02004405WS02004406        0.01      0.01      0.01      1.69         0.01
  WS02006109WS02006110        1.63      1.63      3.32      1.83         0.01
  WS02006110WS02006113        0.01      0.01      3.23      0.01         0.01
  WS02006111WS02006112        0.01      0.01      3.78      0.01         0.01
  WS02006112WS02006115        0.01      0.01      1.96      0.01         0.01
  WS02006228WS02006109        3.19      3.32      3.19      3.93         3.19
  WS02006229WS02006228        3.17      3.20      3.17      3.62         3.16
  WS02006230WS02006229        3.44      3.56      3.44      5.51         3.44
  WS02006231WS02006230        1.65      1.65      1.97      5.35         0.01
  WS02006232WS02006231        1.88      1.88      3.33      1.98         0.01
  WS02006234WS02006232        3.07      3.07      3.33      1.95         1.93
  WS02006235WS02006234        2.28      2.29      3.13      5.27         0.03
  WS02006238WS02006235        3.16      3.16      3.35      0.01         0.02
  WS02006239WS02006238        3.23      3.32      3.24      3.53         2.89
  WS02006240WS02006239        3.18      3.23      3.18      3.52         2.66
  WS02006242WS02006240        3.21      3.21      3.43      3.72         0.01
  WS02006243WS02006242        3.25      3.25      3.38      0.01         0.08
  WS02006245WS02006243        3.23      3.25      3.23      1.84         1.72
  WS02006247WS02006245        3.23      3.29      3.23      5.14         3.20
  WS02006248WS02006247        3.23      3.23      3.27      0.01         0.08
  WS02006249WS02006248        3.21      3.21      3.24      5.13         0.01
  WS02006251WS02006249        3.24      3.26      3.24      3.61         3.14
  WS02006252WS02006251        3.66      3.66      3.66      3.66         0.01
  WS02006256WS02006235        5.26      5.31      6.46      2.09         0.01
  YS02001580YS02001583        2.02      2.02      2.05      0.01         0.01
  YS02001583YS02001586        2.03      2.03      2.13      0.01         0.01
  YS02001586YS02001590        2.13      2.13      2.17      0.01         0.01
  YS02001590YS02001593        2.17      2.17      2.18      2.20         0.01
  YS02001593YS02001596        2.18      2.18      2.23      0.01         0.01
  YS02001596YS02001600        2.25      2.25      2.32      0.01         0.01
  YS02001600YS02001601        2.35      2.35      2.50      0.01         0.01
  YS02001601YS02001602        2.46      2.46      2.52      2.24         0.01
  YS02001602YS02001605        2.44      2.44      2.46      2.92         0.01
  YS02001605YS02001607        2.43      2.44      2.45      2.33         2.31
  YS02001607YS02001610        2.20      2.20      2.22      0.01         0.01
  YS02001610YS02001613        2.20      2.20      2.22      0.01         0.01
  YS02001613YS02001616        2.17      2.17      2.20      0.01         0.01
  YS02001616YS02001619        2.16      2.16      2.17      0.81         0.69
  YS02001619YS02001622        2.16      2.16      2.17      2.04         1.95
  YS02001622YS02001625        2.17      2.17      2.31      0.01         0.01
  YS02001625YS02001629        2.14      2.14      2.31      0.01         0.01
  YS02001629YS02163301        2.33      2.33      2.34      0.01         0.01
  YS02001633YS02163601        2.36      2.36      2.40      0.02         0.01
  YS02001641YS02001644        2.36      2.37      2.36      2.57         2.10
  YS02001644YS02001647        2.24      2.24      2.36      0.01         0.01
  YS02001647YS02001649        2.24      2.24      2.37      0.01         0.01
  YS02001649YS02001757        2.37      2.37      2.45      0.02         0.02
  YS02001652YS02001649        2.23      2.23      2.37      0.01         0.01
  YS02001655YS02001652        2.09      2.09      2.22      0.01         0.01
  YS02001658YS02001655        1.90      1.90      2.09      0.01         0.01
  YS02001661YS02001658        0.83      0.83      1.90      0.01         0.01
  YS02001664YS02001661        0.01      0.01      1.26      0.01         0.01
  YS02001745YS02001748        0.01      0.01      1.89      0.01         0.01
  YS02001748YS02001751        1.92      1.92      2.05      0.01         0.01
  YS02001751YS02001754        2.05      2.05      2.18      0.01         0.01
  YS02001754YS02001757        2.22      2.22      2.45      0.01         0.01
  YS02001757CaochengTiaoxuchi        2.33      2.45      3.09      0.81         0.67
  YS02001759YS02001757        2.38      2.38      2.45      0.21         0.18
  YS02001762YS02001759        2.35      2.35      2.38      0.01         0.01
  YS02001765YS02001762        2.32      2.32      2.35      0.01         0.01
  YS02001767YS02001765        2.29      2.29      2.32      0.01         0.01
  YS02001770YS02001767        2.29      2.29      2.29      1.97         1.78
  YS02001774YS02001770        2.27      2.27      2.34      0.01         0.01
  YS02001779YS02001774        2.16      2.16      2.34      0.01         0.01
  YS02001783YS02001784        1.98      1.99      1.98      2.05         1.98
  YS02001784YS02001785        1.92      1.98      1.92      2.11         1.92
  YS02001786YS02001788        0.01      1.92      0.01      2.08         0.01
  YS02001790YS02001791        0.01      0.01      0.01      1.97         0.01
  YS02001793JiankangQianchi        0.01      0.01      7.69      0.01         0.01
  YS02001882YS02001884        1.97      1.97      1.97      0.01         0.01
  YS02001884YS02001887        1.98      1.98      1.99      0.01         0.01
  YS02001887YS02001890        2.00      2.00      2.00      0.91         0.01
  YS02001890YS02001895        1.96      1.96      2.01      0.01         0.01
  YS02001895YS02001898        1.95      1.95      1.96      0.01         0.01
  YS02001898YS02001901        1.96      1.96      1.98      0.01         0.01
  YS02001901YS02001904        1.98      1.98      1.98      0.01         0.01
  YS02001904YS02001907        1.98      1.98      2.08      0.01         0.01
  YS02001907YS02006553        2.12      2.12      2.14      0.01         0.01
  YS02001910YS02001907        2.00      2.00      2.07      0.54         0.55
  YS02001915YS02001910        1.97      1.97      2.00      0.01         0.01
  YS02001918YS02001915        1.92      1.92      1.97      0.01         0.01
  YS02001920YS02001918        1.92      1.92      1.92      0.01         0.01
  YS02001923YS02001920        1.89      1.89      1.92      0.01         0.01
  YS02001926YS02001923        0.92      0.92      1.03      0.36         0.01
  YS02001929YS02001926        0.66      0.66      1.03      0.01         0.01
  YS02006553YS02006556        2.04      2.04      2.08      0.01         0.01
  YS02006556YS02006558        2.06      2.06      2.08      0.01         0.01
  YS02006558YS02006561        1.94      2.03      1.94      2.10         1.94
  YS02006561YS02001783        1.90      1.90      1.99      0.01         0.01
  YS02163301YS02001633        2.34      2.34      2.37      0.01         0.01
  YS02163601YS02164001        2.36      2.36      2.40      0.01         0.01
  YS02164001YS02001641        2.36      2.36      2.37      0.15         0.24
  
  
  ***************
  Pumping Summary
  ***************
  
  ---------------------------------------------------------------------------------------------------------
                                                  Min       Avg       Max     Total     Power    % Time Off
                        Percent   Number of      Flow      Flow      Flow    Volume     Usage    Pump Curve
  Pump                 Utilized   Start-Ups       LPS       LPS       LPS  10^6 ltr     Kw-hr    Low   High
  ---------------------------------------------------------------------------------------------------------
  CC-R1                   35.85           3      0.00    683.00    683.00     7.053    141.48    0.0   61.9
  CC-R2                   33.95           3      0.00    683.00    683.00     6.678    134.91    0.0   62.4
  CC-S1                   62.50           7      0.00    200.00    200.00     3.600     18.23    0.0   30.9
  CC-S2                   47.91           9      0.00    200.00    200.00     2.760     13.04    0.0   40.2
  JK-R1                   19.92          20      0.00   1000.00   1000.00     5.737     69.14    0.0    0.0
  JK-R2                    3.85           4      0.00   1000.00   1000.00     1.109     11.53    0.0    0.0
  JK-S                    26.19          21      0.00    300.00    300.00     2.263     29.37    0.0    0.0
  

  Analysis begun on:  Thu Apr 24 00:00:18 2025
  Analysis ended on:  Thu Apr 24 00:00:20 2025
  Total elapsed time: 00:00:02