
  EPA STORM WATER MANAGEMENT MODEL - VERSION 5.2 (Build 5.2.4)
  PYSWMM TOOLKIT API - VERSION v1.0 (2023-11-27)
  ------------------------------------------------------------

  WARNING 04: minimum elevation drop used for Conduit WS02004404WS02004405
  WARNING 03: negative offset ignored for Link YS02001904YS02001907
  
  ****************
  Analysis Options
  ****************
  Flow Units ............... LPS
  Process Models:
    Rainfall/Runoff ........ YES
    RDII ................... NO
    Snowmelt ............... NO
    Groundwater ............ NO
    Flow Routing ........... YES
    Ponding Allowed ........ NO
    Water Quality .......... NO
  Infiltration Method ...... HORTON
  Flow Routing Method ...... DYNWAVE
  Surcharge Method ......... EXTRAN
  Starting Date ............ 08/28/2015 08:00:00
  Ending Date .............. 08/28/2015 16:00:00
  Antecedent Dry Days ...... 8.0
  Report Time Step ......... 00:01:00
  Wet Time Step ............ 00:01:00
  Dry Time Step ............ 00:01:00
  Routing Time Step ........ 30.00 sec
  Variable Time Step ....... YES
  Maximum Trials ........... 8
  Number of Threads ........ 4
  Head Tolerance ........... 0.001500 m
  
  
  **************************        Volume         Depth
  Runoff Quantity Continuity     hectare-m            mm
  **************************     ---------       -------
  Total Precipitation ......         2.789        84.091
  Evaporation Loss .........         0.000         0.000
  Infiltration Loss ........         0.101         3.054
  Surface Runoff ...........         2.656        80.065
  Final Storage ............         0.033         0.995
  Continuity Error (%) .....        -0.027
  
  
  **************************        Volume        Volume
  Flow Routing Continuity        hectare-m      10^6 ltr
  **************************     ---------     ---------
  Dry Weather Inflow .......         0.025         0.251
  Wet Weather Inflow .......         2.655        26.551
  Groundwater Inflow .......         0.000         0.000
  RDII Inflow ..............         0.000         0.000
  External Inflow ..........         0.083         0.834
  External Outflow .........         1.808        18.077
  Flooding Loss ............         1.019        10.190
  Evaporation Loss .........         0.000         0.000
  Exfiltration Loss ........         0.000         0.000
  Initial Stored Volume ....         0.243         2.431
  Final Stored Volume ......         0.188         1.876
  Continuity Error (%) .....        -0.258
  
  
  *************************
  Highest Continuity Errors
  *************************
  Node YS02001583 (-11.43%)
  Node YS02001884 (4.75%)
  
  
  ***************************
  Time-Step Critical Elements
  ***************************
  Link WS02006252WS02006251 (60.82%)
  Link WS02004404WS02004405 (13.40%)
  Link WS02006238WS02006235 (6.20%)
  Link YS02001791YS02001793 (5.91%)
  Link WS02006235WS02006234 (3.50%)
  
  
  ********************************
  Highest Flow Instability Indexes
  ********************************
  Link WS02006113WS02006111 (54)
  Link WS02006111WS02006112 (27)
  Link WS02004404WS02004405 (20)
  Link WS02004403WS02004404 (18)
  Link WS02004405WS02004406 (17)
  
  
  *********************************
  Most Frequent Nonconverging Nodes
  *********************************
  Node CC-1 (7.30%)
  Node CC-2 (7.30%)
  Node JK-1 (7.30%)
  Node JK-2 (7.30%)
  Node WSC (7.30%)
  
  
  *************************
  Routing Time Step Summary
  *************************
  Minimum Time Step           :     0.01 sec
  Average Time Step           :     1.59 sec
  Maximum Time Step           :     7.04 sec
  % of Time in Steady State   :     0.00
  Average Iterations per Step :     2.77
  % of Steps Not Converging   :     7.30
  Time Step Frequencies       :
     30.000 - 13.228 sec      :     0.00 %
     13.228 -  5.833 sec      :     6.91 %
      5.833 -  2.572 sec      :     8.72 %
      2.572 -  1.134 sec      :    20.13 %
      1.134 -  0.500 sec      :    64.24 %
  
  
  ***************************
  Subcatchment Runoff Summary
  ***************************
  
  ------------------------------------------------------------------------------------------------------------------------------
                            Total      Total      Total      Total     Imperv       Perv      Total       Total     Peak  Runoff
                           Precip      Runon       Evap      Infil     Runoff     Runoff     Runoff      Runoff   Runoff   Coeff
  Subcatchment                 mm         mm         mm         mm         mm         mm         mm    10^6 ltr      LPS
  ------------------------------------------------------------------------------------------------------------------------------
  sub60                     84.09       0.00       0.00       1.85      72.81       8.24      81.05        1.06   682.87   0.964
  sub61                     84.09       0.00       0.00       2.68      68.67      11.62      80.29        1.47   943.84   0.955
  sub62                     84.09       0.00       0.00       1.24      76.09       5.50      81.58        2.24  1327.97   0.970
  sub63                     84.09       0.00       0.00       4.92      58.74      19.47      78.21        1.78  1044.66   0.930
  sub64                     84.09       0.00       0.00       2.49      70.28      10.13      80.40        1.93  1073.49   0.956
  sub65                     84.09       0.00       0.00       2.16      71.91       8.78      80.69        2.22  1197.95   0.960
  sub66                     84.09       0.00       0.00       6.03      58.63      18.36      76.99        3.59  1546.12   0.916
  sub67                     84.09       0.00       0.00       1.19      76.13       5.54      81.67        1.52  1038.30   0.971
  sub68                     84.09       0.00       0.00       2.22      71.14       9.55      80.70        2.22  1363.13   0.960
  sub69                     84.09       0.00       0.00       1.98      71.37      10.64      82.01        3.04  1599.51   0.975
  sub70                     84.09       0.00       0.00       6.52      55.34      22.08      77.42        2.24   870.02   0.921
  sub71                     84.09       0.00       0.00       1.27      76.04       5.46      81.51        2.13  1163.50   0.969
  sub72                     84.09       0.00       0.00       1.12      76.81       4.76      81.57        1.12   558.92   0.970
  
  
  ******************
  Node Depth Summary
  ******************
  
  ---------------------------------------------------------------------------------
                                 Average  Maximum  Maximum  Time of Max    Reported
                                   Depth    Depth      HGL   Occurrence   Max Depth
  Node                 Type       Meters   Meters   Meters  days hr:min      Meters
  ---------------------------------------------------------------------------------
  WS02003060           JUNCTION     0.26     0.38     5.32     0  02:44        0.38
  WS02003066           JUNCTION     0.21     0.30     5.85     0  02:44        0.30
  WS02003067           JUNCTION     0.54     0.70     6.02     0  02:44        0.70
  WS02003069           JUNCTION     0.29     0.43     5.02     0  02:49        0.43
  WS02003072           JUNCTION     0.36     0.50     4.87     0  02:50        0.50
  WS02003073           JUNCTION     0.21     0.30     4.36     0  02:51        0.30
  WS02004401           JUNCTION     0.64     0.88     6.88     0  02:38        0.88
  WS02004402           JUNCTION     0.67     0.90     6.86     0  02:45        0.90
  WS02004403           JUNCTION     0.70     0.92     6.85     0  02:45        0.92
  WS02004404           JUNCTION     0.77     1.04     6.89     0  02:35        1.00
  WS02004405           JUNCTION     0.75     0.97     6.82     0  02:46        0.97
  WS02004406           JUNCTION     0.77     0.96     6.79     0  02:42        0.96
  WS02004407           JUNCTION     0.20     0.30     6.61     0  02:42        0.30
  WS02004409           JUNCTION     0.44     0.67     6.44     0  02:42        0.67
  WS02004410           JUNCTION     0.46     0.68     6.40     0  02:43        0.68
  WS02004411           JUNCTION     0.48     0.69     6.37     0  02:43        0.69
  WS02004412           JUNCTION     0.50     0.70     6.34     0  02:43        0.70
  WS02004413           JUNCTION     0.66     0.86     6.33     0  02:43        0.86
  WS02006109           JUNCTION     0.69     1.12     7.74     0  01:56        0.99
  WS02006110           JUNCTION     0.69     1.23     7.81     0  01:56        0.94
  WS02006111           JUNCTION     0.19     0.29     6.99     0  02:45        0.29
  WS02006112           JUNCTION     0.80     1.09     6.97     0  02:26        1.08
  WS02006113           JUNCTION     0.30     0.46     7.35     0  02:07        0.45
  WS02006115           JUNCTION     0.53     0.78     6.91     0  02:40        0.77
  WS02006116           JUNCTION     0.61     0.86     6.90     0  02:48        0.86
  WS02006228           JUNCTION     0.68     1.14     7.79     0  01:55        1.06
  WS02006229           JUNCTION     0.66     1.17     7.86     0  01:55        1.07
  WS02006230           JUNCTION     0.66     1.34     8.08     0  01:55        1.18
  WS02006231           JUNCTION     0.46     1.65     8.78     0  02:05        0.95
  WS02006232           JUNCTION     0.60     1.28     8.32     0  02:00        1.15
  WS02006234           JUNCTION     0.53     1.48     8.63     0  02:05        1.16
  WS02006235           JUNCTION     0.57     1.57     8.73     0  02:05        1.25
  WS02006238           JUNCTION     0.60     1.61     8.76     0  02:05        1.28
  WS02006239           JUNCTION     0.56     1.56     8.77     0  02:05        1.27
  WS02006240           JUNCTION     0.53     1.51     8.81     0  02:05        1.22
  WS02006242           JUNCTION     0.60     1.54     8.80     0  02:05        1.29
  WS02006243           JUNCTION     0.50     1.39     8.81     0  02:05        1.18
  WS02006245           JUNCTION     0.50     1.31     8.79     0  02:05        1.15
  WS02006247           JUNCTION     0.52     1.26     8.76     0  01:55        1.16
  WS02006248           JUNCTION     0.47     1.10     8.69     0  01:55        1.09
  WS02006249           JUNCTION     0.51     1.09     8.69     0  01:33        1.09
  WS02006251           JUNCTION     0.50     1.42     9.09     0  01:55        1.13
  WS02006252           JUNCTION     0.38     1.50     9.74     0  00:00        0.68
  WS02006256           JUNCTION     1.01     2.35     9.28     0  00:00        2.35
  WSF200               JUNCTION     0.19     0.29     5.52     0  02:48        0.29
  YS02001580           JUNCTION     0.08     1.05     9.59     0  01:33        0.77
  YS02001583           JUNCTION     0.12     1.14     9.64     0  01:33        0.82
  YS02001586           JUNCTION     0.17     1.13     9.30     0  01:33        1.13
  YS02001590           JUNCTION     0.26     1.39     9.25     0  01:33        1.37
  YS02001593           JUNCTION     0.20     1.46     9.32     0  01:31        1.29
  YS02001596           JUNCTION     0.27     1.72     9.13     0  01:31        1.65
  YS02001600           JUNCTION     0.31     1.87     9.00     0  01:33        1.87
  YS02001601           JUNCTION     0.49     2.06     8.90     0  01:32        2.06
  YS02001602           JUNCTION     0.41     1.87     8.77     0  01:33        1.87
  YS02001605           JUNCTION     0.39     1.78     8.68     0  01:33        1.78
  YS02001607           JUNCTION     0.40     1.66     8.51     0  01:33        1.65
  YS02001610           JUNCTION     0.44     1.68     8.48     0  01:33        1.68
  YS02001613           JUNCTION     0.40     1.70     8.54     0  01:33        1.67
  YS02001616           JUNCTION     0.33     1.61     8.52     0  01:33        1.61
  YS02001619           JUNCTION     0.31     1.61     8.54     0  01:33        1.61
  YS02001622           JUNCTION     0.30     1.62     8.52     0  01:33        1.59
  YS02001625           JUNCTION     0.57     1.78     8.38     0  01:33        1.78
  YS02001629           JUNCTION     0.41     1.85     8.40     0  01:33        1.85
  YS02001633           JUNCTION     0.49     2.08     8.53     0  01:37        2.08
  YS02001641           JUNCTION     0.48     1.96     8.39     0  01:36        1.96
  YS02001644           JUNCTION     0.48     1.92     8.35     0  01:35        1.92
  YS02001647           JUNCTION     0.28     1.80     8.41     0  01:36        1.80
  YS02001649           JUNCTION     0.31     2.05     8.44     0  01:36        2.05
  YS02001652           JUNCTION     0.22     2.15     8.75     0  01:36        1.81
  YS02001655           JUNCTION     0.17     2.20     9.05     0  01:36        1.60
  YS02001658           JUNCTION     0.12     2.30     9.44     0  01:36        1.38
  YS02001661           JUNCTION     0.15     2.12     9.52     0  01:36        1.24
  YS02001664           JUNCTION     0.05     1.74     9.67     0  01:36        1.10
  YS02001745           JUNCTION     0.06     2.20     9.71     0  01:36        0.86
  YS02001748           JUNCTION     0.12     2.27     9.35     0  01:36        1.29
  YS02001751           JUNCTION     0.15     2.20     9.08     0  01:36        1.48
  YS02001754           JUNCTION     0.20     2.20     8.81     0  01:36        1.75
  YS02001757           JUNCTION     0.33     2.21     8.47     0  01:36        2.09
  YS02001759           JUNCTION     0.27     2.21     8.57     0  01:36        2.15
  YS02001762           JUNCTION     0.27     2.15     8.55     0  01:36        2.11
  YS02001765           JUNCTION     0.25     2.10     8.55     0  01:36        2.05
  YS02001767           JUNCTION     0.25     2.03     8.52     0  01:36        2.00
  YS02001770           JUNCTION     0.26     1.95     8.44     0  01:35        1.95
  YS02001774           JUNCTION     0.33     2.00     8.42     0  01:37        2.00
  YS02001779           JUNCTION     0.18     1.68     8.37     0  01:35        1.68
  YS02001783           JUNCTION     0.21     1.50     7.64     0  01:35        1.41
  YS02001784           JUNCTION     0.22     1.31     7.38     0  01:35        1.22
  YS02001786           JUNCTION     0.19     1.00     7.03     0  01:35        0.88
  YS02001788           JUNCTION     0.13     0.63     6.60     0  01:36        0.62
  YS02001790           JUNCTION     0.16     0.73     6.37     0  01:36        0.72
  YS02001791           JUNCTION     0.10     0.44     5.91     0  01:36        0.44
  YS02001793           JUNCTION     0.05     0.29     5.13     0  01:36        0.28
  YS02001882           JUNCTION     0.27     1.83     8.55     0  01:34        1.69
  YS02001884           JUNCTION     0.37     1.87     8.49     0  01:34        1.80
  YS02001887           JUNCTION     0.44     1.93     8.47     0  01:34        1.89
  YS02001890           JUNCTION     0.47     1.81     8.32     0  01:34        1.81
  YS02001895           JUNCTION     0.24     1.64     8.39     0  01:34        1.56
  YS02001898           JUNCTION     0.25     1.66     8.39     0  01:34        1.57
  YS02001901           JUNCTION     0.37     1.71     8.32     0  01:34        1.68
  YS02001904           JUNCTION     0.35     1.66     8.29     0  01:34        1.63
  YS02001907           JUNCTION     0.68     1.96     8.25     0  01:34        1.96
  YS02001910           JUNCTION     0.47     1.97     8.48     0  01:35        1.96
  YS02001915           JUNCTION     0.28     1.93     8.65     0  01:35        1.90
  YS02001918           JUNCTION     0.15     1.81     8.88     0  01:34        1.58
  YS02001920           JUNCTION     0.23     2.14     9.15     0  01:35        1.66
  YS02001923           JUNCTION     0.11     2.03     9.29     0  01:35        1.42
  YS02001926           JUNCTION     0.15     1.90     9.35     0  01:35        1.26
  YS02001929           JUNCTION     0.08     1.78     9.47     0  01:35        1.03
  YS02006553           JUNCTION     0.68     2.07     8.35     0  01:35        2.00
  YS02006556           JUNCTION     0.65     2.17     8.48     0  01:35        1.99
  YS02006558           JUNCTION     0.69     2.25     8.51     0  01:35        2.08
  YS02006561           JUNCTION     0.13     1.19     7.85     0  01:35        1.16
  YS02163301           JUNCTION     0.43     1.94     8.46     0  01:37        1.94
  YS02163601           JUNCTION     0.53     2.06     8.45     0  01:37        2.06
  YS02164001           JUNCTION     0.47     1.96     8.42     0  01:35        1.95
  CC-1                 OUTFALL      0.00     0.00     0.00     0  00:00        0.00
  CC-2                 OUTFALL      0.00     0.00     0.00     0  00:00        0.00
  JK-1                 OUTFALL      0.00     0.00     0.00     0  00:00        0.00
  JK-2                 OUTFALL      0.00     0.00     0.00     0  00:00        0.00
  WSC                  OUTFALL      0.21     0.30     0.97     0  02:51        0.30
  CC-storage           STORAGE      0.87     1.73     7.23     0  02:21        1.73
  JK-storage           STORAGE      2.96     4.24     5.04     0  02:00        4.19
  
  
  *******************
  Node Inflow Summary
  *******************
  
  -------------------------------------------------------------------------------------------------
                                  Maximum  Maximum                  Lateral       Total        Flow
                                  Lateral    Total  Time of Max      Inflow      Inflow     Balance
                                   Inflow   Inflow   Occurrence      Volume      Volume       Error
  Node                 Type           LPS      LPS  days hr:min    10^6 ltr    10^6 ltr     Percent
  -------------------------------------------------------------------------------------------------
  WS02003060           JUNCTION     16.53   556.10     0  02:48       0.476        6.58       0.029
  WS02003066           JUNCTION      0.00   539.26     0  02:44           0        6.11       0.020
  WS02003067           JUNCTION      0.00   539.17     0  02:44           0        6.11       0.066
  WS02003069           JUNCTION      0.32   556.17     0  02:45     0.00922        6.59       0.053
  WS02003072           JUNCTION      0.00   555.75     0  02:50           0        6.59       0.097
  WS02003073           JUNCTION      1.82   557.37     0  02:50      0.0524        6.63       0.074
  WS02004401           JUNCTION      0.00   544.40     0  02:07           0         6.2       0.159
  WS02004402           JUNCTION      0.00   542.78     0  02:32           0        6.19       0.162
  WS02004403           JUNCTION      0.00   543.04     0  02:42           0        6.18       0.157
  WS02004404           JUNCTION      0.16   557.47     0  02:42     0.00467        6.18       0.145
  WS02004405           JUNCTION      0.04   608.07     0  02:38      0.0011        6.17       0.082
  WS02004406           JUNCTION      0.00   547.07     0  02:46           0        6.17       0.327
  WS02004407           JUNCTION      0.00   541.37     0  02:42           0        6.15       0.014
  WS02004409           JUNCTION      0.00   540.73     0  02:42           0        6.14       0.037
  WS02004410           JUNCTION      0.00   540.11     0  02:42           0        6.14       0.064
  WS02004411           JUNCTION      0.00   539.88     0  02:43           0        6.14       0.084
  WS02004412           JUNCTION      0.00   539.72     0  02:43           0        6.13       0.115
  WS02004413           JUNCTION      0.00   539.51     0  02:43           0        6.13       0.205
  WS02006109           JUNCTION      1.23   555.53     0  01:56      0.0354        6.24       0.135
  WS02006110           JUNCTION      0.00   555.61     0  01:56           0        6.24       0.097
  WS02006111           JUNCTION      0.00   561.08     0  01:36           0        6.23       0.012
  WS02006112           JUNCTION      0.00   542.56     0  02:21           0        6.23       0.276
  WS02006113           JUNCTION      0.00   569.05     0  01:34           0        6.23       0.024
  WS02006115           JUNCTION      0.00   548.06     0  01:56           0        6.21       0.100
  WS02006116           JUNCTION      0.00   540.31     0  02:08           0         6.2       0.020
  WS02006228           JUNCTION      0.00   554.65     0  01:56           0        6.21       0.038
  WS02006229           JUNCTION      0.00   554.02     0  01:56           0        6.22       0.070
  WS02006230           JUNCTION     10.28   586.69     0  02:18       0.296        6.22       0.056
  WS02006231           JUNCTION      0.00   571.73     0  01:55           0        5.92      -0.014
  WS02006232           JUNCTION      0.00   571.04     0  01:55           0        5.93       0.149
  WS02006234           JUNCTION      0.00   568.78     0  01:34           0        5.92      -0.123
  WS02006235           JUNCTION      0.00   568.91     0  01:34           0        5.95       0.140
  WS02006238           JUNCTION      0.00   424.04     0  02:15           0        4.76      -0.117
  WS02006239           JUNCTION      0.00   422.97     0  02:15           0        4.74      -0.139
  WS02006240           JUNCTION      0.00   419.40     0  01:50           0        4.74      -0.053
  WS02006242           JUNCTION      0.00   419.13     0  01:50           0        4.73      -0.001
  WS02006243           JUNCTION      0.00   419.10     0  02:15           0        4.73       0.014
  WS02006245           JUNCTION      0.00   419.10     0  02:15           0        4.74       0.190
  WS02006247           JUNCTION      0.00   419.57     0  02:15           0        4.74       0.003
  WS02006248           JUNCTION      0.00   420.86     0  02:15           0        4.75       0.050
  WS02006249           JUNCTION      0.00   459.02     0  00:00           0        5.11       0.137
  WS02006251           JUNCTION      0.08   406.23     0  01:33     0.00222        5.11       0.009
  WS02006252           JUNCTION      0.00   400.00     0  00:00           0        5.11      -0.045
  WS02006256           JUNCTION      0.00   300.00     0  00:00           0        1.77      -0.497
  WSF200               JUNCTION      0.00   539.33     0  02:44           0        6.11       0.005
  YS02001580           JUNCTION      0.00   155.73     0  01:33           0      0.0046      -1.657
  YS02001583           JUNCTION      0.00   273.82     0  01:33           0      0.0151     -10.256
  YS02001586           JUNCTION    870.02   870.02     0  01:42        2.24        2.25       0.078
  YS02001590           JUNCTION      0.00   318.12     0  01:49           0        1.59      -0.045
  YS02001593           JUNCTION      0.00   318.11     0  01:49           0        1.59       0.011
  YS02001596           JUNCTION      0.00   318.07     0  01:49           0        1.59      -0.011
  YS02001600           JUNCTION      0.00   318.08     0  01:53           0        1.59      -0.002
  YS02001601           JUNCTION   1599.51  1916.91     0  01:40        3.04        4.62       0.016
  YS02001602           JUNCTION      0.00   576.57     0  01:33           0        2.58       0.015
  YS02001605           JUNCTION      0.00   576.73     0  01:33           0        2.41       0.014
  YS02001607           JUNCTION      0.00   576.39     0  01:33           0        2.41       0.078
  YS02001610           JUNCTION      0.00   875.30     0  01:42           0        2.87       0.085
  YS02001613           JUNCTION      0.00   538.90     0  01:42           0        2.21       0.079
  YS02001616           JUNCTION      0.00   538.99     0  01:41           0        2.21       0.007
  YS02001619           JUNCTION   1546.12  1546.12     0  01:42        3.59        5.34      -0.005
  YS02001622           JUNCTION      0.00  1012.24     0  01:41           0        4.88      -0.010
  YS02001625           JUNCTION      0.00  1426.61     0  01:43           0        5.19       0.179
  YS02001629           JUNCTION      0.00   931.50     0  01:33           0        3.87       0.004
  YS02001633           JUNCTION   1198.15  1436.68     0  01:34        2.23        5.66       0.060
  YS02001641           JUNCTION      0.00  1434.77     0  01:34           0        5.24       0.057
  YS02001644           JUNCTION   1073.53  1946.18     0  01:35        1.93        7.17       0.047
  YS02001647           JUNCTION      0.00  1946.74     0  01:35           0        6.42       0.008
  YS02001649           JUNCTION      0.00  2215.68     0  01:35           0        8.21       0.007
  YS02001652           JUNCTION      0.00  1093.48     0  01:37           0        1.78      -0.059
  YS02001655           JUNCTION      0.15  1091.43     0  01:37     0.00443        1.78      -0.196
  YS02001658           JUNCTION      0.00  1092.18     0  01:37           0        1.79      -0.107
  YS02001661           JUNCTION      0.00  1089.70     0  01:37           0        1.79       0.059
  YS02001664           JUNCTION   1044.66  1044.66     0  01:39        1.77        1.77      -0.040
  YS02001745           JUNCTION    682.88   694.97     0  01:36        1.06        1.07       0.221
  YS02001748           JUNCTION      0.04   927.93     0  01:36      0.0013        1.07      -0.340
  YS02001751           JUNCTION      0.01   691.75     0  01:38    0.000317        1.08       0.094
  YS02001754           JUNCTION      0.26   691.83     0  01:38     0.00749        1.09      -0.222
  YS02001757           JUNCTION      0.00  3645.96     0  01:37           0        12.6       0.042
  YS02001759           JUNCTION    943.88  1573.73     0  01:36        1.47        3.34      -0.007
  YS02001762           JUNCTION      0.00   795.70     0  01:36           0        1.86      -0.012
  YS02001765           JUNCTION      0.00   796.39     0  01:36           0        1.86       0.011
  YS02001767           JUNCTION      0.54   800.34     0  01:36      0.0154        1.86       0.002
  YS02001770           JUNCTION   1328.12  1328.12     0  01:39        2.24        2.29      -0.019
  YS02001774           JUNCTION      0.00   775.89     0  01:39           0       0.454       0.267
  YS02001779           JUNCTION      0.01   775.26     0  01:39    0.000144       0.407      -0.348
  YS02001783           JUNCTION      0.00  1171.48     0  01:36           0        4.78       0.004
  YS02001784           JUNCTION      1.06  1172.93     0  01:36      0.0305        4.81       0.009
  YS02001786           JUNCTION      0.06  1173.37     0  01:36     0.00162        4.81       0.014
  YS02001788           JUNCTION      0.07  1173.10     0  01:36     0.00204        4.81       0.006
  YS02001790           JUNCTION      0.15  1178.62     0  01:36     0.00446        4.82       0.025
  YS02001791           JUNCTION      0.00  1290.66     0  01:36           0        4.82      -0.030
  YS02001793           JUNCTION      0.00  1269.52     0  01:36           0        4.82       0.005
  YS02001882           JUNCTION      0.00   103.34     0  01:34           0      0.0132       3.832
  YS02001884           JUNCTION      0.00   136.28     0  01:33           0      0.0493       4.988
  YS02001887           JUNCTION   1038.75  1040.03     0  01:38        1.53        1.57       0.282
  YS02001890           JUNCTION      0.00  1039.53     0  01:38           0        1.52       0.337
  YS02001895           JUNCTION      0.00   590.59     0  01:34           0         1.3       0.093
  YS02001898           JUNCTION      0.00   595.59     0  01:34           0         1.3      -0.007
  YS02001901           JUNCTION      0.00   601.38     0  01:34           0         1.3       0.262
  YS02001904           JUNCTION      0.00   602.98     0  01:34           0        1.31       0.219
  YS02001907           JUNCTION      0.00  2426.74     0  01:39           0        4.69       0.391
  YS02001910           JUNCTION      0.00  1726.30     0  01:40           0        3.34       0.222
  YS02001915           JUNCTION   1163.52  1725.27     0  01:40        2.13        3.39       0.033
  YS02001918           JUNCTION      0.00   702.48     0  01:34           0        1.29      -0.011
  YS02001920           JUNCTION      2.87   691.47     0  01:34      0.0827        1.26       0.045
  YS02001923           JUNCTION      0.04   936.90     0  01:34     0.00109        1.16      -0.115
  YS02001926           JUNCTION      0.05  1194.94     0  01:35      0.0015        1.14      -0.335
  YS02001929           JUNCTION    558.92  1183.63     0  01:35        1.12        1.13      -0.281
  YS02006553           JUNCTION      0.00   793.94     0  02:04           0        2.68       0.446
  YS02006556           JUNCTION      0.00   794.03     0  02:04           0        2.69       0.297
  YS02006558           JUNCTION   1364.01  1364.01     0  01:39        2.25        4.86       0.073
  YS02006561           JUNCTION      0.00  1178.08     0  01:34           0        4.78      -0.005
  YS02163301           JUNCTION      0.00   899.75     0  01:34           0        3.86       0.040
  YS02163601           JUNCTION      0.11  1435.69     0  01:34     0.00317        5.24       0.095
  YS02164001           JUNCTION      0.00  1434.59     0  01:34           0        5.24       0.048
  CC-1                 OUTFALL       0.00   683.00     0  00:00           0        4.26       0.000
  CC-2                 OUTFALL       0.00   683.00     0  00:00           0        4.07       0.000
  JK-1                 OUTFALL       0.00  1000.00     0  00:00           0        2.61       0.000
  JK-2                 OUTFALL       0.00  1000.00     0  00:00           0       0.504       0.000
  WSC                  OUTFALL       0.00   557.14     0  02:51           0        6.63       0.000
  CC-storage           STORAGE       0.00  3647.23     0  01:37           0        14.8      -0.208
  JK-storage           STORAGE       0.00  1276.82     0  01:43           0        4.97      -0.191
  
  
  **********************
  Node Surcharge Summary
  **********************
  
  Surcharging occurs when water rises above the top of the highest conduit.
  ---------------------------------------------------------------------
                                               Max. Height   Min. Depth
                                   Hours       Above Crown    Below Rim
  Node                 Type      Surcharged         Meters       Meters
  ---------------------------------------------------------------------
  WS02004404           JUNCTION        0.07          0.043        2.737
  WS02006109           JUNCTION        2.14          0.304        1.516
  WS02006110           JUNCTION        1.32          0.318        1.532
  WS02006112           JUNCTION        1.39          0.089        1.591
  WS02006228           JUNCTION        2.13          0.305        1.895
  WS02006229           JUNCTION        2.13          0.367        2.083
  WS02006230           JUNCTION        1.32          0.260        1.310
  WS02006231           JUNCTION        1.40          0.943        0.587
  WS02006232           JUNCTION        2.18          0.583        0.897
  WS02006234           JUNCTION        1.59          0.756        0.484
  WS02006235           JUNCTION        2.13          0.856        0.434
  WS02006238           JUNCTION        2.15          0.891        0.539
  WS02006239           JUNCTION        2.13          0.821        0.469
  WS02006240           JUNCTION        2.14          0.804        0.586
  WS02006242           JUNCTION        2.15          0.805        0.015
  WS02006243           JUNCTION        2.14          0.684        0.086
  WS02006245           JUNCTION        2.13          0.599        0.251
  WS02006247           JUNCTION        2.14          0.548        0.212
  WS02006248           JUNCTION        2.13          0.380        0.000
  WS02006249           JUNCTION        2.12          0.390        0.000
  WS02006251           JUNCTION        1.46          0.386        0.794
  WS02006252           JUNCTION        2.51          1.100        0.000
  WS02006256           JUNCTION        5.97          2.050        0.000
  YS02001580           JUNCTION        0.82          0.450        0.000
  YS02001583           JUNCTION        0.84          0.500        0.000
  YS02001586           JUNCTION        1.01          0.510        0.000
  YS02001590           JUNCTION        1.09          0.737        0.013
  YS02001593           JUNCTION        1.09          0.840        0.000
  YS02001596           JUNCTION        1.22          0.986        0.084
  YS02001600           JUNCTION        1.39          1.187        0.003
  YS02001601           JUNCTION        1.70          1.440        0.000
  YS02001602           JUNCTION        1.63          1.270        0.000
  YS02001605           JUNCTION        1.59          1.180        0.000
  YS02001607           JUNCTION        1.09          0.662        0.018
  YS02001610           JUNCTION        1.12          0.680        0.000
  YS02001613           JUNCTION        1.09          0.700        0.000
  YS02001616           JUNCTION        1.04          0.610        0.000
  YS02001619           JUNCTION        1.02          0.610        0.000
  YS02001622           JUNCTION        1.02          0.620        0.000
  YS02001625           JUNCTION        1.22          0.780        0.000
  YS02001629           JUNCTION        0.96          0.470        0.000
  YS02001633           JUNCTION        1.26          1.060        0.000
  YS02001641           JUNCTION        1.21          0.956        0.144
  YS02001644           JUNCTION        1.19          0.920        0.000
  YS02001647           JUNCTION        0.97          0.802        0.098
  YS02001649           JUNCTION        1.13          1.050        0.000
  YS02001652           JUNCTION        0.89          1.123        0.007
  YS02001655           JUNCTION        0.62          1.199        0.001
  YS02001658           JUNCTION        0.32          1.300        0.000
  YS02001661           JUNCTION        0.10          1.049        0.341
  YS02001664           JUNCTION        0.01          0.743        0.567
  YS02001745           JUNCTION        0.01          1.197        0.153
  YS02001748           JUNCTION        0.24          1.190        0.000
  YS02001751           JUNCTION        0.44          1.200        0.000
  YS02001754           JUNCTION        0.76          1.150        0.000
  YS02001757           JUNCTION        1.21          1.210        0.000
  YS02001759           JUNCTION        1.10          1.210        0.000
  YS02001762           JUNCTION        1.06          1.150        0.000
  YS02001765           JUNCTION        1.01          1.100        0.000
  YS02001767           JUNCTION        0.96          1.030        0.000
  YS02001770           JUNCTION        0.93          0.920        0.000
  YS02001774           JUNCTION        1.04          1.002        0.048
  YS02001779           JUNCTION        0.73          0.680        0.000
  YS02001783           JUNCTION        0.70          0.695        0.905
  YS02001784           JUNCTION        0.67          0.508        0.982
  YS02001786           JUNCTION        0.56          0.201        1.229
  YS02001882           JUNCTION        0.63          0.830        0.000
  YS02001884           JUNCTION        0.65          0.814        0.056
  YS02001887           JUNCTION        0.69          0.878        0.072
  YS02001890           JUNCTION        0.70          0.760        0.000
  YS02001895           JUNCTION        0.62          0.640        0.110
  YS02001898           JUNCTION        0.62          0.629        0.111
  YS02001901           JUNCTION        0.67          0.708        0.162
  YS02001904           JUNCTION        0.66          0.656        0.194
  YS02001907           JUNCTION        0.92          0.950        0.000
  YS02001910           JUNCTION        0.73          0.974        0.126
  YS02001915           JUNCTION        0.63          0.932        0.068
  YS02001918           JUNCTION        0.54          0.810        0.000
  YS02001920           JUNCTION        0.56          1.140        0.000
  YS02001923           JUNCTION        0.20          0.820        0.000
  YS02001926           JUNCTION        0.23          0.900        0.000
  YS02001929           JUNCTION        0.03          0.780        0.000
  YS02006553           JUNCTION        0.95          1.071        0.119
  YS02006556           JUNCTION        0.82          1.128        0.222
  YS02006558           JUNCTION        0.81          1.148        0.252
  YS02006561           JUNCTION        0.51          0.389        0.761
  YS02163301           JUNCTION        1.24          0.945        0.085
  YS02163601           JUNCTION        1.29          1.057        0.023
  YS02164001           JUNCTION        1.21          0.963        0.137
  
  
  *********************
  Node Flooding Summary
  *********************
  
  Flooding refers to all water that overflows a node, whether it ponds or not.
  --------------------------------------------------------------------------
                                                             Total   Maximum
                                 Maximum   Time of Max       Flood    Ponded
                        Hours       Rate    Occurrence      Volume     Depth
  Node                 Flooded       LPS   days hr:min    10^6 ltr    Meters
  --------------------------------------------------------------------------
  WS02006248              0.01     25.78      0  02:05       0.000     0.000
  WS02006249              1.44     95.41      0  01:33       0.357     0.000
  WS02006252              0.01    245.63      0  00:00       0.000     0.000
  WS02006256              1.64    293.19      0  00:00       0.594     0.000
  YS02001580              0.01     90.74      0  01:33       0.000     0.000
  YS02001583              0.01    235.23      0  01:33       0.000     0.000
  YS02001586              0.68    552.40      0  01:42       0.648     0.000
  YS02001593              0.01     28.12      0  01:31       0.000     0.000
  YS02001601              0.92   1519.08      0  01:40       2.043     0.000
  YS02001602              0.82     62.03      0  01:37       0.166     0.000
  YS02001605              0.01      2.72      0  01:33       0.000     0.000
  YS02001610              0.72    874.90      0  01:42       1.116     0.000
  YS02001613              0.01     22.10      0  01:33       0.000     0.000
  YS02001616              0.01     72.79      0  01:33       0.000     0.000
  YS02001619              0.01    107.15      0  01:33       0.000     0.000
  YS02001622              0.01    155.97      0  01:33       0.000     0.000
  YS02001625              0.69   1426.50      0  01:43       1.729     0.000
  YS02001629              0.17    425.60      0  01:38       0.128     0.000
  YS02001633              0.01      0.68      0  01:37       0.000     0.000
  YS02001644              0.27   1333.57      0  01:39       0.734     0.000
  YS02001649              0.01    230.79      0  01:37       0.004     0.000
  YS02001658              0.01    256.19      0  01:36       0.000     0.000
  YS02001748              0.01    139.67      0  01:36       0.000     0.000
  YS02001751              0.01    164.75      0  01:36       0.001     0.000
  YS02001754              0.01     40.11      0  01:36       0.000     0.000
  YS02001757              0.01     53.94      0  01:36       0.000     0.000
  YS02001759              0.01     24.35      0  01:36       0.000     0.000
  YS02001762              0.01     53.46      0  01:36       0.000     0.000
  YS02001765              0.01     18.58      0  01:36       0.000     0.000
  YS02001767              0.01      7.87      0  01:36       0.000     0.000
  YS02001770              0.03    279.65      0  01:35       0.006     0.000
  YS02001779              0.24    775.09      0  01:39       0.387     0.000
  YS02001882              0.01     23.55      0  01:34       0.000     0.000
  YS02001890              0.22    520.35      0  01:38       0.217     0.000
  YS02001907              0.48   2426.26      0  01:39       2.044     0.000
  YS02001918              0.01    195.41      0  01:34       0.003     0.000
  YS02001920              0.01     43.58      0  01:35       0.000     0.000
  YS02001923              0.01     72.89      0  01:35       0.000     0.000
  YS02001926              0.01     19.64      0  01:35       0.000     0.000
  YS02001929              0.01    971.18      0  01:35       0.009     0.000
  
  
  **********************
  Storage Volume Summary
  **********************
  
  ------------------------------------------------------------------------------------------------
                         Average    Avg   Evap  Exfil     Maximum    Max    Time of Max    Maximum
                          Volume   Pcnt   Pcnt   Pcnt      Volume   Pcnt     Occurrence    Outflow
  Storage Unit           1000 m³   Full   Loss   Loss     1000 m³   Full    days hr:min        LPS
  ------------------------------------------------------------------------------------------------
  CC-storage               2.415   37.7    0.0    0.0       4.835   75.4       0  02:21    1783.53
  JK-storage               0.149   51.1    0.0    0.0       0.213   73.1       0  02:00    2300.00
  
  
  ***********************
  Outfall Loading Summary
  ***********************
  
  -----------------------------------------------------------
                         Flow       Avg       Max       Total
                         Freq      Flow      Flow      Volume
  Outfall Node           Pcnt       LPS       LPS    10^6 ltr
  -----------------------------------------------------------
  CC-1                  18.73    683.00    683.00       4.263
  CC-2                  17.88    683.00    683.00       4.073
  JK-1                   8.08   1000.00   1000.00       2.607
  JK-2                   1.55   1000.00   1000.00       0.504
  WSC                   99.97    293.37    557.14       6.629
  -----------------------------------------------------------
  System                29.24   3659.37   3922.72      18.077
  
  
  ********************
  Link Flow Summary
  ********************
  
  -----------------------------------------------------------------------------
                                 Maximum  Time of Max   Maximum    Max/    Max/
                                  |Flow|   Occurrence   |Veloc|    Full    Full
  Link                 Type          LPS  days hr:min     m/sec    Flow   Depth
  -----------------------------------------------------------------------------
  1                    CONDUIT    557.14     0  02:51      2.83    0.19    0.30
  WS02003060WS02003069 CONDUIT    555.85     0  02:45      1.65    0.22    0.34
  WS02003066WSF200     CONDUIT    539.33     0  02:44      2.86    0.09    0.22
  WS02003067WS02003066 CONDUIT    539.26     0  02:44      1.21    0.17    0.42
  WS02003069WS02003072 CONDUIT    555.75     0  02:50      1.37    0.27    0.39
  WS02003072WS02003073 CONDUIT    555.55     0  02:50      1.44    1.20    0.37
  WS02004401WS02004402 CONDUIT    542.78     0  02:32      0.98    0.65    0.89
  WS02004402WS02004403 CONDUIT    543.04     0  02:42      0.97    0.78    0.91
  WS02004403WS02004404 CONDUIT    557.31     0  02:42      0.92    0.40    0.96
  WS02004404WS02004405 CONDUIT    608.03     0  02:38      1.08    5.96    0.98
  WS02004405WS02004406 CONDUIT    547.07     0  02:46      0.99    1.08    0.96
  WS02004406WS02004407 CONDUIT    541.37     0  02:42      1.04    0.24    0.63
  WS02004407WS02004409 CONDUIT    540.73     0  02:42      1.74    0.19    0.48
  WS02004409WS02004410 CONDUIT    540.11     0  02:42      1.08    0.70    0.68
  WS02004410WS02004411 CONDUIT    539.88     0  02:43      1.04    0.74    0.69
  WS02004411WS02004412 CONDUIT    539.72     0  02:43      1.01    0.77    0.70
  WS02004412WS02004413 CONDUIT    539.51     0  02:43      0.82    0.36    0.78
  WS02004413WS02003067 CONDUIT    539.17     0  02:44      1.11    0.23    0.59
  WS02006109WS02006110 CONDUIT    555.61     0  01:56      1.11    1.07    1.00
  WS02006110WS02006113 CONDUIT    569.05     0  01:34      1.37    0.52    0.78
  WS02006111WS02006112 CONDUIT    542.56     0  02:21      1.81    0.26    0.67
  WS02006112WS02006115 CONDUIT    548.06     0  01:56      0.88    0.32    0.88
  WS02006113WS02006111 CONDUIT    561.08     0  01:36      2.47    0.67    0.46
  WS02006115WS02006116 CONDUIT    540.31     0  02:08      1.18    0.69    0.78
  WS02006116WS02004401 CONDUIT    544.40     0  02:07      1.02    0.75    0.87
  WS02006228WS02006109 CONDUIT    554.30     0  01:56      1.10    2.42    1.00
  WS02006229WS02006228 CONDUIT    554.65     0  01:56      1.14    1.84    1.00
  WS02006230WS02006229 CONDUIT    554.02     0  01:56      1.44   12.33    1.00
  WS02006231WS02006230 CONDUIT    576.42     0  02:18      1.61    8.74    1.00
  WS02006232WS02006231 CONDUIT    571.73     0  01:55      1.49    1.20    1.00
  WS02006234WS02006232 CONDUIT    571.04     0  01:55      1.50    1.16    1.00
  WS02006235WS02006234 CONDUIT    568.78     0  01:34      1.48    6.00    1.00
  WS02006238WS02006235 CONDUIT    423.52     0  02:15      1.45    0.95    1.00
  WS02006239WS02006238 CONDUIT    424.04     0  02:15      1.20    1.36    1.00
  WS02006240WS02006239 CONDUIT    422.97     0  02:15      1.30    1.33    1.00
  WS02006242WS02006240 CONDUIT    419.40     0  01:50      1.17    1.67    1.00
  WS02006243WS02006242 CONDUIT    419.13     0  01:50      1.43    0.90    1.00
  WS02006245WS02006243 CONDUIT    419.10     0  02:15      1.45    1.24    1.00
  WS02006247WS02006245 CONDUIT    419.10     0  02:15      1.43    3.32    1.00
  WS02006248WS02006247 CONDUIT    419.57     0  02:15      1.44    0.91    1.00
  WS02006249WS02006248 CONDUIT    420.86     0  02:15      1.37    2.31    1.00
  WS02006251WS02006249 CONDUIT    459.02     0  00:00      1.99    1.32    1.00
  WS02006252WS02006251 CONDUIT    406.15     0  01:33     24.61    1.49    1.00
  WS02006256WS02006235 CONDUIT    288.91     0  00:00      4.23    3.06    1.00
  WSF200WS02003060     CONDUIT    539.57     0  02:48      2.07    0.12    0.28
  YS02001580YS02001583 CONDUIT    155.73     0  01:33      0.87    0.60    1.00
  YS02001583YS02001586 CONDUIT    201.39     0  01:33      0.88    0.30    1.00
  YS02001586YS02001590 CONDUIT    318.12     0  01:49      1.28    0.56    1.00
  YS02001590YS02001593 CONDUIT    318.11     0  01:49      1.13    2.00    1.00
  YS02001593YS02001596 CONDUIT    318.07     0  01:49      1.74    0.50    1.00
  YS02001596YS02001600 CONDUIT    318.08     0  01:53      1.23    0.62    1.00
  YS02001600YS02001601 CONDUIT    318.15     0  01:49      1.13    0.55    1.00
  YS02001601YS02001602 CONDUIT    576.57     0  01:33      2.04    2.08    1.00
  YS02001602YS02001605 CONDUIT    576.73     0  01:33      2.04   12.20    1.00
  YS02001605YS02001607 CONDUIT    576.39     0  01:33      2.04    3.16    1.00
  YS02001607YS02001610 CONDUIT    545.49     0  01:33      0.72    0.52    1.00
  YS02001610YS02001613 CONDUIT    538.98     0  01:42      0.69    0.62    1.00
  YS02001613YS02001616 CONDUIT    538.90     0  01:42      0.69    0.46    1.00
  YS02001616YS02001619 CONDUIT    538.99     0  01:41      0.69    0.94    1.00
  YS02001619YS02001622 CONDUIT   1012.24     0  01:41      1.29    1.49    1.00
  YS02001622YS02001625 CONDUIT   1012.22     0  01:41      1.29    0.54    1.00
  YS02001625YS02001629 CONDUIT    931.50     0  01:33      1.19    0.44    1.00
  YS02001629YS02163301 CONDUIT    899.75     0  01:34      1.15    1.11    1.00
  YS02001633YS02163601 CONDUIT   1435.58     0  01:34      1.83    1.51    1.00
  YS02001641YS02001644 CONDUIT   1433.40     0  01:34      1.83    4.63    1.00
  YS02001644YS02001647 CONDUIT   1946.74     0  01:35      2.48    1.14    1.00
  YS02001647YS02001649 CONDUIT   1953.66     0  01:34      2.49    1.03    1.00
  YS02001649YS02001757 CONDUIT   2216.58     0  01:35      2.82    1.35    1.00
  YS02001652YS02001649 CONDUIT   1093.18     0  01:37      1.39    0.54    1.00
  YS02001655YS02001652 CONDUIT   1093.48     0  01:37      1.55    0.53    1.00
  YS02001658YS02001655 CONDUIT   1091.28     0  01:37      2.05    0.46    1.00
  YS02001661YS02001658 CONDUIT   1092.18     0  01:37      2.47    0.43    1.00
  YS02001664YS02001661 CONDUIT   1089.70     0  01:37      2.58    0.34    1.00
  YS02001745YS02001748 CONDUIT    691.49     0  01:38      2.44    0.27    1.00
  YS02001748YS02001751 CONDUIT    691.74     0  01:38      1.91    0.35    1.00
  YS02001751YS02001754 CONDUIT    691.57     0  01:38      1.59    0.33    1.00
  YS02001754YS02001757 CONDUIT    691.94     0  01:38      0.88    0.28    1.00
  YS02001757CaochengTiaoxuchi CONDUIT   3647.23     0  01:37      4.96    1.58    1.00
  YS02001759YS02001757 CONDUIT   1575.24     0  01:36      2.01    1.12    1.00
  YS02001762YS02001759 CONDUIT    800.31     0  01:36      1.02    0.92    1.00
  YS02001765YS02001762 CONDUIT    795.70     0  01:36      1.01    0.75    1.00
  YS02001767YS02001765 CONDUIT    796.39     0  01:36      1.01    1.00    1.00
  YS02001770YS02001767 CONDUIT    799.81     0  01:36      1.02    3.17    1.00
  YS02001774YS02001770 CONDUIT    775.89     0  01:39      0.99    0.50    1.00
  YS02001779YS02001774 CONDUIT    775.26     0  01:39      0.99    0.39    1.00
  YS02001783YS02001784 CONDUIT   1171.87     0  01:36      2.33    1.62    1.00
  YS02001784YS02001785 CONDUIT   1173.31     0  01:36      2.33    2.73    1.00
  YS02001786YS02001788 CONDUIT   1173.03     0  01:36      2.50    2.26    0.89
  YS02001788YS02001790 CONDUIT   1178.46     0  01:36      2.73    0.87    0.84
  YS02001790YS02001791 CONDUIT   1290.66     0  01:36      3.43    1.40    0.71
  YS02001791YS02001793 CONDUIT   1269.52     0  01:36      6.78    0.55    0.45
  YS02001793JiankangQianchi CONDUIT   1276.82     0  01:43      2.56    0.10    0.65
  YS02001882YS02001884 CONDUIT    103.34     0  01:34      0.17    0.12    1.00
  YS02001884YS02001887 CONDUIT    136.28     0  01:33      0.17    0.18    1.00
  YS02001887YS02001890 CONDUIT   1039.53     0  01:38      1.32    1.78    1.00
  YS02001890YS02001895 CONDUIT    590.59     0  01:34      0.75    0.28    1.00
  YS02001895YS02001898 CONDUIT    595.59     0  01:34      0.76    1.03    1.00
  YS02001898YS02001901 CONDUIT    601.38     0  01:34      0.77    0.39    1.00
  YS02001901YS02001904 CONDUIT    602.98     0  01:34      0.77    0.94    1.00
  YS02001904YS02001907 CONDUIT    604.63     0  01:34      0.77    0.21    1.00
  YS02001907YS02006553 CONDUIT    793.94     0  02:04      0.88    0.93    1.00
  YS02001910YS02001907 CONDUIT   1725.72     0  01:40      2.20    0.97    1.00
  YS02001915YS02001910 CONDUIT   1726.30     0  01:40      2.20    0.86    1.00
  YS02001918YS02001915 CONDUIT    702.48     0  01:34      0.91    0.39    1.00
  YS02001920YS02001918 CONDUIT    688.60     0  01:34      0.88    0.67    1.00
  YS02001923YS02001920 CONDUIT    709.72     0  01:34      0.97    0.32    1.00
  YS02001926YS02001923 CONDUIT    945.81     0  01:35      1.40    1.35    1.00
  YS02001929YS02001926 CONDUIT    888.56     0  01:35      1.23    0.42    1.00
  YS02006553YS02006556 CONDUIT    794.03     0  02:04      1.01    0.68    1.00
  YS02006556YS02006558 CONDUIT    794.66     0  02:04      1.01    0.63    1.00
  YS02006558YS02006561 CONDUIT   1178.08     0  01:34      4.17    2.60    1.00
  YS02006561YS02001783 CONDUIT   1171.48     0  01:36      2.33    0.61    1.00
  YS02163301YS02001633 CONDUIT    898.52     0  01:34      1.14    0.84    1.00
  YS02163601YS02164001 CONDUIT   1434.59     0  01:34      1.83    1.27    1.00
  YS02164001YS02001641 CONDUIT   1434.77     0  01:34      1.83    1.96    1.00
  CC-R1                PUMP       683.00     0  00:00              1.00
  CC-R2                PUMP       683.00     0  00:00              1.00
  CC-S1                PUMP       200.00     0  00:00              1.00
  CC-S2                PUMP       200.00     0  00:00              1.00
  JK-R1                PUMP      1000.00     0  00:00              1.00
  JK-R2                PUMP      1000.00     0  00:00              1.00
  JK-S                 PUMP       300.00     0  00:00              1.00
  
  
  ***************************
  Flow Classification Summary
  ***************************
  
  -------------------------------------------------------------------------------------
                      Adjusted    ---------- Fraction of Time in Flow Class ---------- 
                       /Actual         Up    Down  Sub   Sup   Up    Down  Norm  Inlet 
  Conduit               Length    Dry  Dry   Dry   Crit  Crit  Crit  Crit  Ltd   Ctrl  
  -------------------------------------------------------------------------------------
  1                       1.00   0.00  0.00  0.00  0.00  1.00  0.00  0.00  0.45  0.00
  WS02003060WS02003069    1.00   0.00  0.00  0.00  0.99  0.01  0.00  0.00  0.65  0.00
  WS02003066WSF200        1.00   0.13  0.00  0.00  0.00  0.87  0.00  0.00  0.70  0.00
  WS02003067WS02003066    1.00   0.10  0.02  0.00  0.88  0.00  0.00  0.00  0.00  0.00
  WS02003069WS02003072    1.00   0.00  0.00  0.00  0.99  0.01  0.00  0.00  0.72  0.00
  WS02003072WS02003073    1.00   0.00  0.00  0.00  0.00  0.00  0.00  1.00  0.00  0.00
  WS02004401WS02004402    1.00   0.02  0.00  0.00  0.98  0.00  0.00  0.00  0.00  0.00
  WS02004402WS02004403    1.00   0.02  0.00  0.00  0.97  0.00  0.00  0.00  0.00  0.00
  WS02004403WS02004404    1.00   0.00  0.03  0.00  0.97  0.00  0.00  0.00  0.00  0.00
  WS02004404WS02004405    1.00   0.00  0.00  0.00  1.00  0.00  0.00  0.00  0.01  0.00
  WS02004405WS02004406    1.00   0.00  0.00  0.00  1.00  0.00  0.00  0.00  0.00  0.00
  WS02004406WS02004407    1.00   0.00  0.05  0.00  0.95  0.00  0.00  0.00  0.00  0.00
  WS02004407WS02004409    1.00   0.05  0.00  0.00  0.94  0.01  0.00  0.00  0.94  0.00
  WS02004409WS02004410    1.00   0.05  0.00  0.00  0.95  0.00  0.00  0.00  0.03  0.00
  WS02004410WS02004411    1.00   0.05  0.00  0.00  0.95  0.00  0.00  0.00  0.01  0.00
  WS02004411WS02004412    1.00   0.05  0.00  0.00  0.95  0.00  0.00  0.00  0.00  0.00
  WS02004412WS02004413    1.00   0.05  0.00  0.00  0.94  0.00  0.00  0.00  0.01  0.00
  WS02004413WS02003067    1.00   0.06  0.04  0.00  0.00  0.00  0.90  0.00  0.00  0.00
  WS02006109WS02006110    1.00   0.00  0.01  0.00  0.98  0.00  0.01  0.00  0.00  0.00
  WS02006110WS02006113    1.00   0.01  0.01  0.00  0.98  0.00  0.00  0.00  0.00  0.00
  WS02006111WS02006112    1.00   0.02  0.00  0.00  0.98  0.00  0.00  0.00  0.98  0.00
  WS02006112WS02006115    1.00   0.02  0.00  0.00  0.97  0.00  0.00  0.00  0.00  0.00
  WS02006113WS02006111    1.00   0.02  0.00  0.00  0.00  0.98  0.00  0.00  0.15  0.00
  WS02006115WS02006116    1.00   0.02  0.00  0.00  0.97  0.00  0.00  0.01  0.00  0.00
  WS02006116WS02004401    1.00   0.02  0.00  0.00  0.98  0.00  0.00  0.00  0.00  0.00
  WS02006228WS02006109    1.00   0.00  0.00  0.00  1.00  0.00  0.00  0.00  0.00  0.00
  WS02006229WS02006228    1.00   0.00  0.00  0.00  0.99  0.00  0.00  0.01  0.00  0.00
  WS02006230WS02006229    1.00   0.00  0.00  0.00  0.99  0.00  0.00  0.01  0.00  0.00
  WS02006231WS02006230    1.00   0.00  0.00  0.00  0.29  0.00  0.71  0.00  0.00  0.00
  WS02006232WS02006231    1.00   0.00  0.00  0.00  0.99  0.00  0.01  0.00  0.00  0.00
  WS02006234WS02006232    1.00   0.00  0.00  0.00  1.00  0.00  0.00  0.00  0.14  0.00
  WS02006235WS02006234    1.00   0.00  0.00  0.00  0.81  0.00  0.19  0.00  0.00  0.00
  WS02006238WS02006235    1.00   0.00  0.00  0.00  1.00  0.00  0.00  0.00  0.00  0.00
  WS02006239WS02006238    1.00   0.00  0.00  0.00  1.00  0.00  0.00  0.00  0.25  0.00
  WS02006240WS02006239    1.00   0.00  0.00  0.00  0.66  0.00  0.00  0.34  0.01  0.00
  WS02006242WS02006240    1.00   0.00  0.00  0.00  0.99  0.00  0.01  0.00  0.00  0.00
  WS02006243WS02006242    1.00   0.00  0.00  0.00  0.99  0.00  0.00  0.01  0.40  0.00
  WS02006245WS02006243    1.00   0.00  0.00  0.00  0.73  0.00  0.00  0.27  0.00  0.00
  WS02006247WS02006245    1.00   0.00  0.00  0.00  0.99  0.00  0.00  0.01  0.00  0.00
  WS02006248WS02006247    1.00   0.00  0.00  0.00  0.99  0.00  0.00  0.00  0.16  0.00
  WS02006249WS02006248    1.00   0.00  0.00  0.00  0.60  0.00  0.40  0.00  0.00  0.00
  WS02006251WS02006249    1.00   0.00  0.00  0.00  1.00  0.00  0.00  0.00  0.40  0.00
  WS02006252WS02006251    1.00   0.00  0.41  0.00  0.18  0.00  0.41  0.00  0.00  0.00
  WS02006256WS02006235    1.00   0.00  0.00  0.00  1.00  0.00  0.00  0.00  0.00  0.00
  WSF200WS02003060        1.00   0.00  0.13  0.00  0.25  0.62  0.00  0.00  0.36  0.00
  YS02001580YS02001583    1.00   0.19  0.58  0.00  0.23  0.00  0.00  0.00  0.67  0.00
  YS02001583YS02001586    1.00   0.41  0.30  0.00  0.28  0.00  0.00  0.00  0.67  0.00
  YS02001586YS02001590    1.00   0.13  0.00  0.00  0.44  0.04  0.00  0.40  0.33  0.00
  YS02001590YS02001593    1.00   0.13  0.01  0.00  0.15  0.00  0.72  0.00  0.00  0.00
  YS02001593YS02001596    1.00   0.13  0.00  0.00  0.17  0.01  0.00  0.68  0.02  0.00
  YS02001596YS02001600    1.00   0.13  0.00  0.00  0.23  0.01  0.00  0.63  0.03  0.00
  YS02001600YS02001601    1.00   0.13  0.01  0.00  0.86  0.00  0.00  0.00  0.59  0.00
  YS02001601YS02001602    1.00   0.13  0.01  0.00  0.87  0.00  0.00  0.00  0.00  0.00
  YS02001602YS02001605    1.00   0.13  0.00  0.00  0.87  0.00  0.00  0.00  0.00  0.00
  YS02001605YS02001607    1.00   0.13  0.00  0.00  0.87  0.00  0.00  0.00  0.00  0.00
  YS02001607YS02001610    1.00   0.13  0.01  0.00  0.86  0.00  0.00  0.00  0.01  0.00
  YS02001610YS02001613    1.00   0.13  0.00  0.00  0.87  0.00  0.00  0.00  0.00  0.00
  YS02001613YS02001616    1.00   0.13  0.00  0.00  0.87  0.00  0.00  0.00  0.00  0.00
  YS02001616YS02001619    1.00   0.13  0.00  0.00  0.87  0.00  0.00  0.00  0.00  0.00
  YS02001619YS02001622    1.00   0.13  0.00  0.00  0.87  0.00  0.00  0.00  0.29  0.00
  YS02001622YS02001625    1.00   0.13  0.00  0.00  0.87  0.00  0.00  0.00  0.03  0.00
  YS02001625YS02001629    1.00   0.13  0.04  0.00  0.20  0.00  0.64  0.00  0.00  0.00
  YS02001629YS02163301    1.00   0.15  0.01  0.00  0.85  0.00  0.00  0.00  0.00  0.00
  YS02001633YS02163601    1.00   0.00  0.01  0.00  0.99  0.00  0.00  0.00  0.14  0.00
  YS02001641YS02001644    1.00   0.00  0.01  0.00  0.99  0.00  0.00  0.00  0.00  0.00
  YS02001644YS02001647    1.00   0.00  0.16  0.00  0.84  0.00  0.00  0.00  0.00  0.00
  YS02001647YS02001649    1.00   0.00  0.16  0.00  0.57  0.27  0.00  0.00  0.56  0.00
  YS02001649YS02001757    1.00   0.00  0.00  0.00  0.84  0.16  0.00  0.00  0.39  0.00
  YS02001652YS02001649    1.00   0.00  0.00  0.00  0.97  0.03  0.00  0.00  0.72  0.00
  YS02001655YS02001652    1.00   0.00  0.00  0.00  0.21  0.01  0.00  0.78  0.03  0.00
  YS02001658YS02001655    1.00   0.00  0.14  0.00  0.70  0.16  0.00  0.00  0.65  0.00
  YS02001661YS02001658    1.00   0.14  0.00  0.00  0.54  0.32  0.00  0.00  0.69  0.00
  YS02001664YS02001661    1.00   0.13  0.00  0.00  0.76  0.11  0.00  0.00  0.84  0.00
  YS02001745YS02001748    1.00   0.00  0.00  0.00  0.14  0.01  0.00  0.85  0.06  0.00
  YS02001748YS02001751    1.00   0.00  0.00  0.00  0.86  0.14  0.00  0.00  0.77  0.00
  YS02001751YS02001754    1.00   0.00  0.00  0.00  0.20  0.00  0.00  0.80  0.02  0.00
  YS02001754YS02001757    1.00   0.00  0.00  0.00  1.00  0.00  0.00  0.00  0.79  0.00
  YS02001757CaochengTiaoxuchi    1.00   0.00  0.00  0.00  0.97  0.03  0.00  0.00  0.63  0.00
  YS02001759YS02001757    1.00   0.00  0.00  0.00  0.99  0.01  0.00  0.00  0.53  0.00
  YS02001762YS02001759    1.00   0.00  0.00  0.00  1.00  0.00  0.00  0.00  0.05  0.00
  YS02001765YS02001762    1.00   0.00  0.00  0.00  1.00  0.00  0.00  0.00  0.68  0.00
  YS02001767YS02001765    1.00   0.00  0.00  0.00  1.00  0.00  0.00  0.00  0.01  0.00
  YS02001770YS02001767    1.00   0.00  0.00  0.00  1.00  0.00  0.00  0.00  0.00  0.00
  YS02001774YS02001770    1.00   0.00  0.13  0.00  0.70  0.00  0.16  0.00  0.02  0.00
  YS02001779YS02001774    1.00   0.00  0.00  0.00  1.00  0.00  0.00  0.00  0.76  0.00
  YS02001783YS02001784    1.00   0.00  0.17  0.00  0.83  0.00  0.00  0.00  0.55  0.00
  YS02001784YS02001785    1.00   0.00  0.00  0.00  1.00  0.00  0.00  0.00  0.15  0.00
  YS02001786YS02001788    1.00   0.00  0.00  0.00  0.79  0.21  0.00  0.00  0.00  0.00
  YS02001788YS02001790    1.00   0.00  0.00  0.00  0.21  0.79  0.00  0.00  0.79  0.00
  YS02001790YS02001791    1.00   0.00  0.00  0.00  0.01  0.99  0.00  0.00  0.17  0.00
  YS02001791YS02001793    1.00   0.00  0.00  0.00  0.00  1.00  0.00  0.00  0.01  0.00
  YS02001793JiankangQianchi    1.00   0.00  0.00  0.00  0.97  0.03  0.00  0.00  0.95  0.00
  YS02001882YS02001884    1.00   0.15  0.01  0.00  0.85  0.00  0.00  0.00  0.00  0.00
  YS02001884YS02001887    1.00   0.06  0.05  0.00  0.89  0.00  0.00  0.00  0.00  0.00
  YS02001887YS02001890    1.00   0.00  0.00  0.00  0.97  0.00  0.03  0.00  0.00  0.00
  YS02001890YS02001895    1.00   0.00  0.15  0.00  0.85  0.00  0.00  0.00  0.00  0.00
  YS02001895YS02001898    1.00   0.15  0.00  0.00  0.83  0.00  0.01  0.00  0.00  0.00
  YS02001898YS02001901    1.00   0.16  0.00  0.00  0.84  0.00  0.00  0.00  0.01  0.00
  YS02001901YS02001904    1.00   0.16  0.00  0.00  0.84  0.00  0.00  0.00  0.00  0.00
  YS02001904YS02001907    1.00   0.00  0.15  0.00  0.84  0.00  0.00  0.00  0.00  0.00
  YS02001907YS02006553    1.00   0.00  0.02  0.00  0.98  0.00  0.00  0.00  0.00  0.00
  YS02001910YS02001907    1.00   0.00  0.00  0.00  0.97  0.00  0.00  0.03  0.12  0.00
  YS02001915YS02001910    1.00   0.00  0.00  0.00  0.97  0.03  0.00  0.00  0.13  0.00
  YS02001918YS02001915    1.00   0.00  0.01  0.00  0.98  0.02  0.00  0.00  0.72  0.00
  YS02001920YS02001918    1.00   0.00  0.01  0.00  0.99  0.00  0.00  0.00  0.00  0.00
  YS02001923YS02001920    1.00   0.00  0.00  0.00  1.00  0.00  0.00  0.00  0.90  0.00
  YS02001926YS02001923    1.00   0.00  0.07  0.00  0.08  0.00  0.85  0.00  0.00  0.00
  YS02001929YS02001926    1.00   0.00  0.13  0.00  0.87  0.00  0.00  0.00  0.80  0.00
  YS02006553YS02006556    1.00   0.01  0.00  0.00  0.99  0.00  0.00  0.00  0.03  0.00
  YS02006556YS02006558    1.00   0.00  0.00  0.00  1.00  0.00  0.00  0.00  0.00  0.00
  YS02006558YS02006561    1.00   0.16  0.00  0.00  0.08  0.76  0.00  0.00  0.18  0.00
  YS02006561YS02001783    1.00   0.16  0.00  0.00  0.11  0.73  0.00  0.00  0.67  0.00
  YS02163301YS02001633    1.00   0.00  0.15  0.00  0.85  0.00  0.00  0.00  0.00  0.00
  YS02163601YS02164001    1.00   0.00  0.08  0.00  0.92  0.00  0.00  0.00  0.00  0.00
  YS02164001YS02001641    1.00   0.01  0.07  0.00  0.92  0.00  0.00  0.00  0.05  0.00
  
  
  *************************
  Conduit Surcharge Summary
  *************************
  
  ----------------------------------------------------------------------------
                                                           Hours        Hours 
                         --------- Hours Full --------   Above Full   Capacity
  Conduit                Both Ends  Upstream  Dnstream   Normal Flow   Limited
  ----------------------------------------------------------------------------
  WS02003072WS02003073        0.01      0.01      0.01      1.58         0.01
  WS02004403WS02004404        0.01      0.01      0.05      0.01         0.01
  WS02004404WS02004405        0.01      0.05      0.01      4.60         0.01
  WS02004405WS02004406        0.01      0.01      0.01      1.25         0.01
  WS02006109WS02006110        1.31      1.31      2.16      1.39         0.01
  WS02006110WS02006113        0.01      0.01      2.15      0.01         0.01
  WS02006111WS02006112        0.01      0.01      2.80      0.01         0.01
  WS02006112WS02006115        0.01      0.01      1.39      0.01         0.01
  WS02006228WS02006109        2.14      2.16      2.14      3.12         2.13
  WS02006229WS02006228        2.13      2.13      2.13      2.51         2.12
  WS02006230WS02006229        2.22      2.44      2.22      4.88         2.22
  WS02006231WS02006230        1.32      1.32      1.43      4.73         0.01
  WS02006232WS02006231        1.40      1.40      2.18      1.45         0.01
  WS02006234WS02006232        2.12      2.12      2.18      1.44         1.43
  WS02006235WS02006234        1.59      1.59      2.12      4.64         0.01
  WS02006238WS02006235        2.13      2.13      2.18      0.01         0.01
  WS02006239WS02006238        2.15      2.16      2.15      2.31         1.94
  WS02006240WS02006239        2.13      2.14      2.13      2.32         1.82
  WS02006242WS02006240        2.14      2.14      2.21      2.54         0.01
  WS02006243WS02006242        2.14      2.14      2.15      0.01         0.03
  WS02006245WS02006243        2.13      2.13      2.14      1.05         0.97
  WS02006247WS02006245        2.13      2.14      2.13      4.57         2.13
  WS02006248WS02006247        2.13      2.13      2.14      0.01         0.03
  WS02006249WS02006248        2.12      2.13      2.12      4.56         0.01
  WS02006251WS02006249        2.12      2.12      2.12      2.45         2.09
  WS02006252WS02006251        2.50      2.50      2.50      2.50         0.01
  WS02006256WS02006235        4.65      4.68      5.94      1.64         0.01
  YS02001580YS02001583        0.82      0.82      0.90      0.01         0.01
  YS02001583YS02001586        0.84      0.84      1.01      0.01         0.01
  YS02001586YS02001590        1.02      1.02      1.09      0.01         0.01
  YS02001590YS02001593        1.09      1.09      1.11      1.17         0.01
  YS02001593YS02001596        1.11      1.11      1.22      0.01         0.01
  YS02001596YS02001600        1.27      1.27      1.39      0.01         0.01
  YS02001600YS02001601        1.47      1.47      1.70      0.01         0.01
  YS02001601YS02001602        1.63      1.63      1.73      1.39         0.01
  YS02001602YS02001605        1.59      1.59      1.63      2.37         0.01
  YS02001605YS02001607        1.56      1.59      1.56      1.68         1.56
  YS02001607YS02001610        1.09      1.09      1.12      0.01         0.01
  YS02001610YS02001613        1.09      1.09      1.12      0.01         0.01
  YS02001613YS02001616        1.04      1.04      1.09      0.01         0.01
  YS02001616YS02001619        1.02      1.02      1.04      0.01         0.07
  YS02001619YS02001622        1.02      1.02      1.02      1.08         0.96
  YS02001622YS02001625        1.02      1.02      1.22      0.01         0.01
  YS02001625YS02001629        0.96      0.96      1.22      0.01         0.01
  YS02001629YS02163301        1.23      1.23      1.24      0.02         0.14
  YS02001633YS02163601        1.26      1.26      1.29      0.37         0.33
  YS02001641YS02001644        1.19      1.21      1.19      1.75         1.18
  YS02001644YS02001647        0.97      0.97      1.19      0.03         0.01
  YS02001647YS02001649        0.97      0.97      1.13      0.01         0.01
  YS02001649YS02001757        1.12      1.13      1.21      0.04         0.05
  YS02001652YS02001649        0.92      0.92      1.13      0.01         0.01
  YS02001655YS02001652        0.62      0.62      0.89      0.01         0.01
  YS02001658YS02001655        0.32      0.32      0.62      0.01         0.01
  YS02001661YS02001658        0.10      0.10      0.32      0.01         0.01
  YS02001664YS02001661        0.01      0.01      0.14      0.01         0.01
  YS02001745YS02001748        0.01      0.01      0.24      0.01         0.01
  YS02001748YS02001751        0.29      0.29      0.44      0.01         0.01
  YS02001751YS02001754        0.44      0.44      0.76      0.01         0.01
  YS02001754YS02001757        0.83      0.83      1.21      0.01         0.01
  YS02001757CaochengTiaoxuchi        1.10      1.21      1.95      0.47         0.33
  YS02001759YS02001757        1.10      1.10      1.21      0.10         0.09
  YS02001762YS02001759        1.06      1.06      1.10      0.01         0.02
  YS02001765YS02001762        1.00      1.00      1.06      0.01         0.01
  YS02001767YS02001765        0.96      0.96      1.00      0.01         0.02
  YS02001770YS02001767        0.96      0.96      0.96      0.69         0.67
  YS02001774YS02001770        0.92      0.92      1.04      0.01         0.01
  YS02001779YS02001774        0.73      0.73      1.04      0.01         0.01
  YS02001783YS02001784        0.67      0.70      0.67      0.85         0.67
  YS02001784YS02001785        0.56      0.67      0.56      1.16         0.56
  YS02001786YS02001788        0.01      0.56      0.01      0.99         0.01
  YS02001790YS02001791        0.01      0.01      0.01      0.66         0.01
  YS02001793JiankangQianchi        0.01      0.01      7.23      0.01         0.01
  YS02001882YS02001884        0.63      0.63      0.65      0.01         0.01
  YS02001884YS02001887        0.67      0.67      0.69      0.01         0.01
  YS02001887YS02001890        0.70      0.70      0.71      0.19         0.01
  YS02001890YS02001895        0.62      0.62      0.73      0.01         0.01
  YS02001895YS02001898        0.62      0.62      0.62      0.01         0.01
  YS02001898YS02001901        0.63      0.63      0.67      0.01         0.01
  YS02001901YS02001904        0.66      0.66      0.67      0.01         0.01
  YS02001904YS02001907        0.66      0.66      0.95      0.01         0.01
  YS02001907YS02006553        1.17      1.17      1.26      0.01         0.01
  YS02001910YS02001907        0.73      0.73      0.92      0.01         0.01
  YS02001915YS02001910        0.63      0.63      0.73      0.01         0.01
  YS02001918YS02001915        0.54      0.54      0.63      0.01         0.01
  YS02001920YS02001918        0.54      0.54      0.56      0.01         0.01
  YS02001923YS02001920        0.50      0.50      0.56      0.01         0.01
  YS02001926YS02001923        0.20      0.20      0.23      0.01         0.01
  YS02001929YS02001926        0.03      0.03      0.23      0.01         0.01
  YS02006553YS02006556        0.82      0.82      0.95      0.01         0.01
  YS02006556YS02006558        0.88      0.88      0.98      0.01         0.01
  YS02006558YS02006561        0.58      0.81      0.58      1.09         0.58
  YS02006561YS02001783        0.51      0.51      0.70      0.01         0.01
  YS02163301YS02001633        1.24      1.24      1.28      0.01         0.01
  YS02163601YS02164001        1.21      1.21      1.29      0.04         0.01
  YS02164001YS02001641        1.21      1.21      1.21      0.86         0.84
  
  
  ***************
  Pumping Summary
  ***************
  
  ---------------------------------------------------------------------------------------------------------
                                                  Min       Avg       Max     Total     Power    % Time Off
                        Percent   Number of      Flow      Flow      Flow    Volume     Usage    Pump Curve
  Pump                 Utilized   Start-Ups       LPS       LPS       LPS  10^6 ltr     Kw-hr    Low   High
  ---------------------------------------------------------------------------------------------------------
  CC-R1                   21.67           3      0.00    683.00    683.00     4.262     80.40    0.0   13.5
  CC-R2                   20.70           3      0.00    683.00    683.00     4.073     76.89    0.0   14.1
  CC-S1                   56.28           6      0.00    200.00    200.00     3.242     19.41    0.0    0.0
  CC-S2                   32.38           8      0.00    200.00    200.00     1.865     10.71    0.0    0.0
  JK-R1                    9.05          13      0.00   1000.00   1000.00     2.607     28.14    0.0    0.0
  JK-R2                    1.75           8      0.00   1000.00   1000.00     0.503      4.03    0.0    0.0
  JK-S                    20.49          12      0.00    300.00    300.00     1.770     29.07    0.0    0.0
  

  Analysis begun on:  Wed Apr 23 23:58:44 2025
  Analysis ended on:  Wed Apr 23 23:58:45 2025
  Total elapsed time: 00:00:01