
  EPA STORM WATER MANAGEMENT MODEL - VERSION 5.2 (Build 5.2.4)
  PYSWMM TOOLKIT API - VERSION v1.0 (2023-11-27)
  ------------------------------------------------------------

  WARNING 04: minimum elevation drop used for Conduit WS02004404WS02004405
  WARNING 03: negative offset ignored for Link YS02001904YS02001907
  
  ****************
  Analysis Options
  ****************
  Flow Units ............... LPS
  Process Models:
    Rainfall/Runoff ........ YES
    RDII ................... NO
    Snowmelt ............... NO
    Groundwater ............ NO
    Flow Routing ........... YES
    Ponding Allowed ........ NO
    Water Quality .......... NO
  Infiltration Method ...... HORTON
  Flow Routing Method ...... DYNWAVE
  Surcharge Method ......... EXTRAN
  Starting Date ............ 08/28/2015 08:00:00
  Ending Date .............. 08/28/2015 16:00:00
  Antecedent Dry Days ...... 8.0
  Report Time Step ......... 00:01:00
  Wet Time Step ............ 00:01:00
  Dry Time Step ............ 00:01:00
  Routing Time Step ........ 30.00 sec
  Variable Time Step ....... YES
  Maximum Trials ........... 8
  Number of Threads ........ 4
  Head Tolerance ........... 0.001500 m
  
  
  **************************        Volume         Depth
  Runoff Quantity Continuity     hectare-m            mm
  **************************     ---------       -------
  Total Precipitation ......         1.542        46.498
  Evaporation Loss .........         0.000         0.000
  Infiltration Loss ........         0.095         2.870
  Surface Runoff ...........         1.415        42.646
  Final Storage ............         0.033         0.993
  Continuity Error (%) .....        -0.022
  
  
  **************************        Volume        Volume
  Flow Routing Continuity        hectare-m      10^6 ltr
  **************************     ---------     ---------
  Dry Weather Inflow .......         0.025         0.251
  Wet Weather Inflow .......         1.414        14.142
  Groundwater Inflow .......         0.000         0.000
  RDII Inflow ..............         0.000         0.000
  External Inflow ..........         0.083         0.834
  External Outflow .........         1.377        13.767
  Flooding Loss ............         0.208         2.084
  Evaporation Loss .........         0.000         0.000
  Exfiltration Loss ........         0.000         0.000
  Initial Stored Volume ....         0.243         2.431
  Final Stored Volume ......         0.188         1.883
  Continuity Error (%) .....        -0.432
  
  
  *************************
  Highest Continuity Errors
  *************************
  Node YS02001583 (-16.70%)
  Node YS02001884 (4.68%)
  Node YS02001774 (1.40%)
  
  
  ***************************
  Time-Step Critical Elements
  ***************************
  Link WS02006252WS02006251 (59.84%)
  Link WS02004404WS02004405 (13.39%)
  Link WS02006238WS02006235 (9.46%)
  Link WS02006235WS02006234 (4.45%)
  Link YS02001791YS02001793 (2.95%)
  
  
  ********************************
  Highest Flow Instability Indexes
  ********************************
  Link WS02006113WS02006111 (52)
  Link WS02006111WS02006112 (23)
  Link WS02004404WS02004405 (19)
  Link WS02004403WS02004404 (16)
  Link WS02004405WS02004406 (15)
  
  
  *********************************
  Most Frequent Nonconverging Nodes
  *********************************
  Node CC-1 (6.54%)
  Node CC-2 (6.54%)
  Node JK-1 (6.54%)
  Node JK-2 (6.54%)
  Node WSC (6.54%)
  
  
  *************************
  Routing Time Step Summary
  *************************
  Minimum Time Step           :     0.02 sec
  Average Time Step           :     1.67 sec
  Maximum Time Step           :     7.04 sec
  % of Time in Steady State   :     0.00
  Average Iterations per Step :     2.66
  % of Steps Not Converging   :     6.54
  Time Step Frequencies       :
     30.000 - 13.228 sec      :     0.00 %
     13.228 -  5.833 sec      :     7.74 %
      5.833 -  2.572 sec      :    11.02 %
      2.572 -  1.134 sec      :    18.10 %
      1.134 -  0.500 sec      :    63.14 %
  
  
  ***************************
  Subcatchment Runoff Summary
  ***************************
  
  ------------------------------------------------------------------------------------------------------------------------------
                            Total      Total      Total      Total     Imperv       Perv      Total       Total     Peak  Runoff
                           Precip      Runon       Evap      Infil     Runoff     Runoff     Runoff      Runoff   Runoff   Coeff
  Subcatchment                 mm         mm         mm         mm         mm         mm         mm    10^6 ltr      LPS
  ------------------------------------------------------------------------------------------------------------------------------
  sub60                     46.50       0.00       0.00       1.77      39.71       3.81      43.52        0.57   317.78   0.936
  sub61                     46.50       0.00       0.00       2.56      37.46       5.35      42.81        0.79   434.73   0.921
  sub62                     46.50       0.00       0.00       1.18      41.49       2.54      44.03        1.21   613.25   0.947
  sub63                     46.50       0.00       0.00       4.67      32.04       8.82      40.86        0.93   467.44   0.879
  sub64                     46.50       0.00       0.00       2.37      38.32       4.61      42.92        1.03   484.21   0.923
  sub65                     46.50       0.00       0.00       2.05      39.20       4.00      43.20        1.19   539.15   0.929
  sub66                     46.50       0.00       0.00       5.65      31.94       7.84      39.78        1.85   672.68   0.855
  sub67                     46.50       0.00       0.00       1.15      41.53       2.58      44.11        0.82   492.83   0.949
  sub68                     46.50       0.00       0.00       2.12      38.80       4.39      43.19        1.19   626.00   0.929
  sub69                     46.50       0.00       0.00       1.85      39.41       5.13      44.54        1.65   732.31   0.958
  sub70                     46.50       0.00       0.00       5.97      30.53       9.84      40.37        1.17   385.49   0.868
  sub71                     46.50       0.00       0.00       1.21      41.45       2.51      43.96        1.15   528.42   0.946
  sub72                     46.50       0.00       0.00       1.07      41.84       2.19      44.03        0.61   250.83   0.947
  
  
  ******************
  Node Depth Summary
  ******************
  
  ---------------------------------------------------------------------------------
                                 Average  Maximum  Maximum  Time of Max    Reported
                                   Depth    Depth      HGL   Occurrence   Max Depth
  Node                 Type       Meters   Meters   Meters  days hr:min      Meters
  ---------------------------------------------------------------------------------
  WS02003060           JUNCTION     0.25     0.38     5.32     0  02:19        0.38
  WS02003066           JUNCTION     0.21     0.30     5.85     0  02:19        0.30
  WS02003067           JUNCTION     0.52     0.70     6.02     0  02:19        0.70
  WS02003069           JUNCTION     0.28     0.43     5.02     0  02:23        0.43
  WS02003072           JUNCTION     0.34     0.50     4.87     0  02:24        0.50
  WS02003073           JUNCTION     0.20     0.30     4.36     0  02:24        0.30
  WS02004401           JUNCTION     0.62     0.88     6.88     0  02:40        0.88
  WS02004402           JUNCTION     0.66     0.90     6.86     0  02:15        0.90
  WS02004403           JUNCTION     0.68     0.92     6.85     0  02:44        0.92
  WS02004404           JUNCTION     0.76     1.05     6.90     0  02:20        1.01
  WS02004405           JUNCTION     0.74     0.97     6.82     0  02:14        0.97
  WS02004406           JUNCTION     0.75     0.96     6.79     0  02:15        0.96
  WS02004407           JUNCTION     0.19     0.30     6.61     0  02:15        0.30
  WS02004409           JUNCTION     0.42     0.67     6.44     0  02:15        0.67
  WS02004410           JUNCTION     0.44     0.68     6.40     0  02:16        0.68
  WS02004411           JUNCTION     0.46     0.69     6.37     0  02:18        0.69
  WS02004412           JUNCTION     0.48     0.70     6.34     0  02:16        0.70
  WS02004413           JUNCTION     0.64     0.86     6.33     0  02:17        0.86
  WS02006109           JUNCTION     0.68     1.12     7.74     0  02:59        0.98
  WS02006110           JUNCTION     0.68     1.12     7.70     0  01:56        0.93
  WS02006111           JUNCTION     0.19     0.29     6.99     0  02:31        0.29
  WS02006112           JUNCTION     0.78     1.09     6.98     0  02:14        1.07
  WS02006113           JUNCTION     0.29     0.46     7.35     0  02:59        0.46
  WS02006115           JUNCTION     0.51     0.78     6.91     0  02:14        0.77
  WS02006116           JUNCTION     0.59     0.86     6.90     0  02:13        0.85
  WS02006228           JUNCTION     0.67     1.16     7.81     0  02:59        1.09
  WS02006229           JUNCTION     0.64     1.15     7.85     0  02:59        1.11
  WS02006230           JUNCTION     0.63     1.27     8.01     0  01:56        1.21
  WS02006231           JUNCTION     0.44     1.05     8.17     0  02:59        1.03
  WS02006232           JUNCTION     0.57     1.29     8.33     0  02:59        1.29
  WS02006234           JUNCTION     0.49     1.38     8.54     0  02:59        1.38
  WS02006235           JUNCTION     0.53     1.50     8.66     0  02:59        1.50
  WS02006238           JUNCTION     0.56     1.54     8.69     0  02:59        1.54
  WS02006239           JUNCTION     0.53     1.59     8.80     0  01:56        1.59
  WS02006240           JUNCTION     0.49     1.63     8.93     0  01:56        1.63
  WS02006242           JUNCTION     0.56     1.55     8.82     0  01:56        1.55
  WS02006243           JUNCTION     0.46     1.48     8.90     0  01:56        1.48
  WS02006245           JUNCTION     0.46     1.45     8.93     0  01:56        1.45
  WS02006247           JUNCTION     0.48     1.36     8.86     0  01:56        1.36
  WS02006248           JUNCTION     0.44     1.10     8.69     0  01:47        1.10
  WS02006249           JUNCTION     0.47     1.09     8.69     0  01:39        1.09
  WS02006251           JUNCTION     0.46     1.54     9.21     0  01:39        1.51
  WS02006252           JUNCTION     0.36     1.50     9.74     0  00:00        1.09
  WS02006256           JUNCTION     0.98     2.35     9.28     0  00:00        2.35
  WSF200               JUNCTION     0.18     0.29     5.52     0  02:19        0.29
  YS02001580           JUNCTION     0.06     1.05     9.59     0  01:37        0.77
  YS02001583           JUNCTION     0.10     1.14     9.64     0  01:37        0.82
  YS02001586           JUNCTION     0.15     1.13     9.30     0  01:36        1.13
  YS02001590           JUNCTION     0.23     1.40     9.26     0  01:36        1.37
  YS02001593           JUNCTION     0.17     1.39     9.25     0  01:36        1.29
  YS02001596           JUNCTION     0.23     1.73     9.15     0  01:36        1.65
  YS02001600           JUNCTION     0.28     1.87     9.00     0  01:36        1.86
  YS02001601           JUNCTION     0.46     2.06     8.90     0  01:36        2.06
  YS02001602           JUNCTION     0.38     1.87     8.77     0  01:37        1.87
  YS02001605           JUNCTION     0.35     1.78     8.68     0  01:37        1.78
  YS02001607           JUNCTION     0.36     1.68     8.53     0  01:37        1.66
  YS02001610           JUNCTION     0.41     1.68     8.48     0  01:37        1.68
  YS02001613           JUNCTION     0.37     1.70     8.54     0  01:37        1.68
  YS02001616           JUNCTION     0.30     1.61     8.52     0  01:37        1.61
  YS02001619           JUNCTION     0.27     1.61     8.54     0  01:37        1.61
  YS02001622           JUNCTION     0.26     1.59     8.50     0  01:38        1.59
  YS02001625           JUNCTION     0.54     1.78     8.38     0  01:37        1.78
  YS02001629           JUNCTION     0.37     1.85     8.40     0  01:37        1.85
  YS02001633           JUNCTION     0.45     2.01     8.47     0  01:41        1.93
  YS02001641           JUNCTION     0.44     1.92     8.36     0  01:42        1.82
  YS02001644           JUNCTION     0.43     1.91     8.34     0  01:45        1.79
  YS02001647           JUNCTION     0.22     1.65     8.26     0  01:45        1.50
  YS02001649           JUNCTION     0.25     1.78     8.17     0  01:45        1.61
  YS02001652           JUNCTION     0.15     1.92     8.52     0  01:45        1.41
  YS02001655           JUNCTION     0.11     1.99     8.84     0  01:45        1.16
  YS02001658           JUNCTION     0.07     0.96     8.10     0  01:42        0.88
  YS02001661           JUNCTION     0.12     0.65     8.05     0  01:43        0.64
  YS02001664           JUNCTION     0.04     0.26     8.18     0  01:41        0.26
  YS02001745           JUNCTION     0.04     0.35     7.86     0  01:41        0.35
  YS02001748           JUNCTION     0.07     0.81     7.89     0  01:41        0.74
  YS02001751           JUNCTION     0.09     1.68     8.56     0  01:42        0.97
  YS02001754           JUNCTION     0.12     1.74     8.35     0  01:42        1.23
  YS02001757           JUNCTION     0.25     1.76     8.02     0  01:42        1.58
  YS02001759           JUNCTION     0.20     1.91     8.28     0  01:40        1.54
  YS02001762           JUNCTION     0.19     1.86     8.26     0  01:40        1.53
  YS02001765           JUNCTION     0.18     1.93     8.38     0  01:40        1.50
  YS02001767           JUNCTION     0.18     2.01     8.50     0  01:40        1.49
  YS02001770           JUNCTION     0.19     1.95     8.44     0  01:40        1.51
  YS02001774           JUNCTION     0.26     2.05     8.47     0  01:40        1.59
  YS02001779           JUNCTION     0.11     1.68     8.37     0  01:40        1.33
  YS02001783           JUNCTION     0.20     1.32     7.46     0  01:39        1.22
  YS02001784           JUNCTION     0.22     1.19     7.25     0  01:39        1.11
  YS02001786           JUNCTION     0.18     0.90     6.93     0  01:39        0.87
  YS02001788           JUNCTION     0.13     0.62     6.60     0  01:39        0.62
  YS02001790           JUNCTION     0.15     0.72     6.37     0  01:40        0.72
  YS02001791           JUNCTION     0.10     0.44     5.91     0  01:40        0.43
  YS02001793           JUNCTION     0.05     0.30     5.13     0  01:41        0.27
  YS02001882           JUNCTION     0.26     1.83     8.55     0  01:38        1.61
  YS02001884           JUNCTION     0.35     1.93     8.55     0  01:38        1.70
  YS02001887           JUNCTION     0.43     1.91     8.45     0  01:38        1.78
  YS02001890           JUNCTION     0.46     1.81     8.32     0  01:38        1.79
  YS02001895           JUNCTION     0.23     1.75     8.50     0  01:38        1.54
  YS02001898           JUNCTION     0.24     1.77     8.51     0  01:38        1.54
  YS02001901           JUNCTION     0.36     1.87     8.48     0  01:38        1.66
  YS02001904           JUNCTION     0.34     1.85     8.48     0  01:38        1.63
  YS02001907           JUNCTION     0.66     1.96     8.25     0  01:38        1.96
  YS02001910           JUNCTION     0.45     2.00     8.51     0  01:40        2.00
  YS02001915           JUNCTION     0.26     1.96     8.68     0  01:40        1.96
  YS02001918           JUNCTION     0.13     1.81     8.88     0  01:40        1.81
  YS02001920           JUNCTION     0.21     2.10     9.11     0  01:40        2.10
  YS02001923           JUNCTION     0.10     2.03     9.29     0  01:39        2.03
  YS02001926           JUNCTION     0.13     1.90     9.35     0  01:39        1.90
  YS02001929           JUNCTION     0.07     1.78     9.47     0  01:40        1.78
  YS02006553           JUNCTION     0.67     2.00     8.28     0  01:39        1.96
  YS02006556           JUNCTION     0.64     2.00     8.31     0  01:39        1.93
  YS02006558           JUNCTION     0.68     2.04     8.31     0  01:39        1.96
  YS02006561           JUNCTION     0.12     1.06     7.72     0  01:39        0.88
  YS02163301           JUNCTION     0.39     1.92     8.44     0  01:41        1.88
  YS02163601           JUNCTION     0.49     2.02     8.41     0  01:45        1.92
  YS02164001           JUNCTION     0.42     1.93     8.39     0  01:45        1.83
  CC-1                 OUTFALL      0.00     0.00     0.00     0  00:00        0.00
  CC-2                 OUTFALL      0.00     0.00     0.00     0  00:00        0.00
  JK-1                 OUTFALL      0.00     0.00     0.00     0  00:00        0.00
  JK-2                 OUTFALL      0.00     0.00     0.00     0  00:00        0.00
  WSC                  OUTFALL      0.20     0.30     0.97     0  02:24        0.30
  CC-storage           STORAGE      0.80     1.38     6.88     0  02:09        1.38
  JK-storage           STORAGE      2.84     4.23     5.03     0  01:41        4.17
  
  
  *******************
  Node Inflow Summary
  *******************
  
  -------------------------------------------------------------------------------------------------
                                  Maximum  Maximum                  Lateral       Total        Flow
                                  Lateral    Total  Time of Max      Inflow      Inflow     Balance
                                   Inflow   Inflow   Occurrence      Volume      Volume       Error
  Node                 Type           LPS      LPS  days hr:min    10^6 ltr    10^6 ltr     Percent
  -------------------------------------------------------------------------------------------------
  WS02003060           JUNCTION     16.53   555.49     0  02:19       0.476        5.93       0.033
  WS02003066           JUNCTION      0.00   538.39     0  02:19           0        5.45       0.023
  WS02003067           JUNCTION      0.00   538.33     0  02:17           0        5.46       0.073
  WS02003069           JUNCTION      0.32   555.35     0  02:20     0.00922        5.94       0.059
  WS02003072           JUNCTION      0.00   555.02     0  02:23           0        5.93       0.107
  WS02003073           JUNCTION      1.82   556.63     0  02:24      0.0524        5.98       0.083
  WS02004401           JUNCTION      0.00   542.44     0  02:14           0        5.55       0.178
  WS02004402           JUNCTION      0.00   540.97     0  02:14           0        5.54       0.181
  WS02004403           JUNCTION      0.00   542.40     0  02:44           0        5.53       0.175
  WS02004404           JUNCTION      0.16   561.44     0  02:20     0.00467        5.53       0.196
  WS02004405           JUNCTION      0.04   602.93     0  02:07      0.0011        5.52       0.136
  WS02004406           JUNCTION      0.00   547.36     0  02:15           0        5.51       0.367
  WS02004407           JUNCTION      0.00   540.68     0  02:15           0        5.49       0.016
  WS02004409           JUNCTION      0.00   539.76     0  02:15           0        5.49       0.041
  WS02004410           JUNCTION      0.00   539.29     0  02:15           0        5.49       0.071
  WS02004411           JUNCTION      0.00   538.99     0  02:16           0        5.48       0.093
  WS02004412           JUNCTION      0.00   538.89     0  02:16           0        5.48       0.128
  WS02004413           JUNCTION      0.00   538.76     0  02:16           0        5.47       0.229
  WS02006109           JUNCTION      1.23   565.03     0  02:59      0.0354        5.59       0.121
  WS02006110           JUNCTION      0.00   567.73     0  02:59           0        5.59       0.109
  WS02006111           JUNCTION      0.00   568.98     0  02:59           0        5.58       0.011
  WS02006112           JUNCTION      0.00   544.26     0  02:59           0        5.58       0.303
  WS02006113           JUNCTION      0.00   583.03     0  02:59           0        5.58       0.029
  WS02006115           JUNCTION      0.00   563.88     0  02:59           0        5.56       0.111
  WS02006116           JUNCTION      0.00   544.19     0  01:59           0        5.56       0.048
  WS02006228           JUNCTION      0.00   559.69     0  02:59           0        5.56       0.029
  WS02006229           JUNCTION      0.00   560.44     0  02:59           0        5.56       0.080
  WS02006230           JUNCTION     10.28   582.49     0  01:55       0.296        5.57       0.053
  WS02006231           JUNCTION      0.00   574.79     0  01:56           0        5.27       0.021
  WS02006232           JUNCTION      0.00   573.54     0  01:56           0        5.28       0.143
  WS02006234           JUNCTION      0.00   568.76     0  01:56           0        5.27      -0.120
  WS02006235           JUNCTION      0.00   562.01     0  01:55           0         5.3       0.132
  WS02006238           JUNCTION      0.00   422.68     0  02:20           0        4.38      -0.183
  WS02006239           JUNCTION      0.00   422.65     0  02:20           0        4.35      -0.220
  WS02006240           JUNCTION      0.00   419.96     0  02:20           0        4.35      -0.048
  WS02006242           JUNCTION      0.00   419.72     0  02:20           0        4.34      -0.008
  WS02006243           JUNCTION      0.00   418.84     0  02:20           0        4.34      -0.129
  WS02006245           JUNCTION      0.00   418.81     0  02:20           0        4.35       0.235
  WS02006247           JUNCTION      0.00   418.03     0  02:20           0        4.35       0.014
  WS02006248           JUNCTION      0.00   417.93     0  01:50           0        4.35      -0.004
  WS02006249           JUNCTION      0.00   459.02     0  00:00           0        4.57       0.170
  WS02006251           JUNCTION      0.08   408.24     0  01:47     0.00222        4.57       0.005
  WS02006252           JUNCTION      0.00   400.00     0  00:00           0        4.56      -0.102
  WS02006256           JUNCTION      0.00   300.00     0  00:00           0        1.33      -0.476
  WSF200               JUNCTION      0.00   538.49     0  02:19           0        5.45       0.006
  YS02001580           JUNCTION      0.00   227.63     0  01:37           0     0.00422     -10.336
  YS02001583           JUNCTION      0.00   286.19     0  01:37           0      0.0141     -14.312
  YS02001586           JUNCTION    385.49   385.50     0  01:44        1.17        1.18       0.142
  YS02001590           JUNCTION      0.00   318.02     0  01:51           0        1.12      -0.035
  YS02001593           JUNCTION      0.00   317.94     0  01:51           0        1.12       0.008
  YS02001596           JUNCTION      0.00   318.20     0  01:47           0        1.12      -0.004
  YS02001600           JUNCTION      0.00   317.96     0  01:47           0        1.12       0.003
  YS02001601           JUNCTION    732.31  1049.81     0  01:42        1.65        2.77       0.027
  YS02001602           JUNCTION      0.00   587.71     0  01:37           0        2.08       0.016
  YS02001605           JUNCTION      0.00   587.99     0  01:37           0           2       0.019
  YS02001607           JUNCTION      0.00   587.45     0  01:37           0           2       0.083
  YS02001610           JUNCTION      0.00   558.73     0  01:37           0           2       0.110
  YS02001613           JUNCTION      0.00   527.70     0  01:37           0        1.86       0.078
  YS02001616           JUNCTION      0.00   489.49     0  02:07           0        1.86       0.010
  YS02001619           JUNCTION    672.68   898.32     0  01:39        1.85        3.71      -0.009
  YS02001622           JUNCTION      0.00   896.37     0  01:39           0        3.71      -0.002
  YS02001625           JUNCTION      0.00   895.84     0  01:39           0        3.71       0.243
  YS02001629           JUNCTION      0.00   896.20     0  01:39           0        3.51       0.001
  YS02001633           JUNCTION    539.35  1396.24     0  01:39        1.19        4.71       0.070
  YS02001641           JUNCTION      0.00  1395.89     0  01:38           0        4.71       0.058
  YS02001644           JUNCTION    484.25  1853.33     0  01:39        1.03        5.74       0.056
  YS02001647           JUNCTION      0.00  1852.75     0  01:39           0        5.72       0.005
  YS02001649           JUNCTION      0.00  2189.06     0  01:39           0        6.66       0.005
  YS02001652           JUNCTION      0.00   552.47     0  01:43           0       0.931      -0.248
  YS02001655           JUNCTION      0.15   641.01     0  01:41     0.00443       0.932       0.016
  YS02001658           JUNCTION      0.00   669.71     0  01:45           0       0.927       0.004
  YS02001661           JUNCTION      0.00   467.25     0  01:40           0       0.927       0.033
  YS02001664           JUNCTION    467.44   467.44     0  01:40       0.927       0.927      -0.008
  YS02001745           JUNCTION    317.79   317.79     0  01:40       0.572       0.572       0.225
  YS02001748           JUNCTION      0.04   416.38     0  01:42      0.0013       0.572      -0.289
  YS02001751           JUNCTION      0.01   535.24     0  01:42    0.000317       0.576       0.178
  YS02001754           JUNCTION      0.26   380.88     0  01:45     0.00749       0.584      -0.380
  YS02001757           JUNCTION      0.00  3159.71     0  01:42           0        9.25       0.062
  YS02001759           JUNCTION    434.77  1114.98     0  01:40       0.786        2.01      -0.013
  YS02001762           JUNCTION      0.00   678.53     0  01:40           0        1.22      -0.002
  YS02001765           JUNCTION      0.00   672.59     0  01:40           0        1.22      -0.003
  YS02001767           JUNCTION      0.54   668.94     0  01:40      0.0154        1.22      -0.013
  YS02001770           JUNCTION    613.40   648.31     0  01:40        1.21        1.25      -0.029
  YS02001774           JUNCTION      0.00   401.45     0  01:40           0      0.0614       1.419
  YS02001779           JUNCTION      0.01   408.37     0  01:40    0.000144      0.0194      -3.576
  YS02001783           JUNCTION      0.00  1148.24     0  01:40           0        3.51       0.006
  YS02001784           JUNCTION      1.06  1149.57     0  01:40      0.0305        3.54       0.013
  YS02001786           JUNCTION      0.06  1149.48     0  01:40     0.00162        3.54       0.017
  YS02001788           JUNCTION      0.07  1153.27     0  01:39     0.00204        3.54       0.008
  YS02001790           JUNCTION      0.15  1166.01     0  01:39     0.00446        3.55       0.025
  YS02001791           JUNCTION      0.00  1286.60     0  01:40           0        3.55      -0.020
  YS02001793           JUNCTION      0.00  1237.91     0  01:41           0        3.55       0.009
  YS02001882           JUNCTION      0.00    79.07     0  01:38           0      0.0128       3.685
  YS02001884           JUNCTION      0.00   143.36     0  01:38           0      0.0489       4.911
  YS02001887           JUNCTION    493.28   533.69     0  01:38       0.833       0.867       0.502
  YS02001890           JUNCTION      0.00   544.70     0  01:38           0       0.826       0.595
  YS02001895           JUNCTION      0.00   556.75     0  01:38           0        0.82       0.185
  YS02001898           JUNCTION      0.00   525.26     0  01:38           0       0.818      -0.019
  YS02001901           JUNCTION      0.00   534.76     0  01:38           0       0.821       0.375
  YS02001904           JUNCTION      0.00   535.28     0  01:38           0       0.828       0.302
  YS02001907           JUNCTION      0.00  1429.06     0  01:40           0        2.66       0.657
  YS02001910           JUNCTION      0.00   963.32     0  01:40           0        1.84       0.391
  YS02001915           JUNCTION    528.44   963.26     0  01:40        1.15        1.89       0.060
  YS02001918           JUNCTION      0.00   547.09     0  01:38           0       0.774       0.022
  YS02001920           JUNCTION      2.87   462.35     0  01:39      0.0827       0.748       0.119
  YS02001923           JUNCTION      0.04   460.28     0  01:39     0.00109       0.647      -0.123
  YS02001926           JUNCTION      0.05   834.39     0  01:39      0.0015       0.626      -0.102
  YS02001929           JUNCTION    250.83   665.44     0  01:39       0.605       0.611      -0.032
  YS02006553           JUNCTION      0.00   788.00     0  01:53           0        2.35       0.487
  YS02006556           JUNCTION      0.00   787.36     0  01:53           0        2.36       0.325
  YS02006558           JUNCTION    626.88  1181.12     0  01:39        1.21        3.55       0.095
  YS02006561           JUNCTION      0.00  1181.62     0  01:39           0        3.51      -0.007
  YS02163301           JUNCTION      0.00   894.32     0  01:39           0        3.52       0.039
  YS02163601           JUNCTION      0.11  1395.26     0  01:39     0.00317        4.71       0.102
  YS02164001           JUNCTION      0.00  1395.49     0  01:39           0         4.7       0.048
  CC-1                 OUTFALL       0.00   683.00     0  00:00           0        2.89       0.000
  CC-2                 OUTFALL       0.00   683.00     0  00:00           0        2.63       0.000
  JK-1                 OUTFALL       0.00  1000.00     0  00:00           0        1.63       0.000
  JK-2                 OUTFALL       0.00  1000.00     0  00:00           0       0.648       0.000
  WSC                  OUTFALL       0.00   556.38     0  02:24           0        5.97       0.000
  CC-storage           STORAGE       0.00  3160.37     0  01:42           0        11.5      -0.258
  JK-storage           STORAGE       0.00  1243.65     0  01:49           0         3.7      -0.231
  
  
  **********************
  Node Surcharge Summary
  **********************
  
  Surcharging occurs when water rises above the top of the highest conduit.
  ---------------------------------------------------------------------
                                               Max. Height   Min. Depth
                                   Hours       Above Crown    Below Rim
  Node                 Type      Surcharged         Meters       Meters
  ---------------------------------------------------------------------
  WS02004404           JUNCTION        0.04          0.048        2.732
  WS02006109           JUNCTION        1.84          0.299        1.521
  WS02006110           JUNCTION        0.76          0.207        1.643
  WS02006112           JUNCTION        0.84          0.093        1.587
  WS02006228           JUNCTION        1.81          0.329        1.871
  WS02006229           JUNCTION        1.86          0.352        2.098
  WS02006230           JUNCTION        0.77          0.188        1.382
  WS02006231           JUNCTION        0.83          0.341        1.189
  WS02006232           JUNCTION        1.96          0.594        0.886
  WS02006234           JUNCTION        1.11          0.659        0.581
  WS02006235           JUNCTION        1.85          0.787        0.503
  WS02006238           JUNCTION        1.90          0.823        0.607
  WS02006239           JUNCTION        1.82          0.852        0.438
  WS02006240           JUNCTION        1.76          0.924        0.466
  WS02006242           JUNCTION        1.82          0.820        0.000
  WS02006243           JUNCTION        1.74          0.770        0.000
  WS02006245           JUNCTION        1.73          0.737        0.113
  WS02006247           JUNCTION        1.74          0.648        0.112
  WS02006248           JUNCTION        1.72          0.380        0.000
  WS02006249           JUNCTION        1.72          0.390        0.000
  WS02006251           JUNCTION        0.86          0.508        0.672
  WS02006252           JUNCTION        2.22          1.100        0.000
  WS02006256           JUNCTION        5.66          2.050        0.000
  YS02001580           JUNCTION        0.42          0.450        0.000
  YS02001583           JUNCTION        0.42          0.500        0.000
  YS02001586           JUNCTION        0.59          0.510        0.000
  YS02001590           JUNCTION        0.66          0.750        0.000
  YS02001593           JUNCTION        0.65          0.771        0.069
  YS02001596           JUNCTION        0.75          0.996        0.074
  YS02001600           JUNCTION        0.90          1.190        0.000
  YS02001601           JUNCTION        1.34          1.440        0.000
  YS02001602           JUNCTION        1.18          1.270        0.000
  YS02001605           JUNCTION        1.11          1.180        0.000
  YS02001607           JUNCTION        0.60          0.680        0.000
  YS02001610           JUNCTION        0.63          0.680        0.000
  YS02001613           JUNCTION        0.60          0.700        0.000
  YS02001616           JUNCTION        0.55          0.610        0.000
  YS02001619           JUNCTION        0.55          0.610        0.000
  YS02001622           JUNCTION        0.54          0.592        0.028
  YS02001625           JUNCTION        0.71          0.780        0.000
  YS02001629           JUNCTION        0.47          0.470        0.000
  YS02001633           JUNCTION        0.72          0.991        0.069
  YS02001641           JUNCTION        0.65          0.919        0.181
  YS02001644           JUNCTION        0.62          0.912        0.008
  YS02001647           JUNCTION        0.40          0.654        0.246
  YS02001649           JUNCTION        0.52          0.779        0.271
  YS02001652           JUNCTION        0.28          0.891        0.239
  YS02001655           JUNCTION        0.08          0.986        0.214
  YS02001751           JUNCTION        0.01          0.681        0.519
  YS02001754           JUNCTION        0.10          0.690        0.460
  YS02001757           JUNCTION        0.55          0.761        0.449
  YS02001759           JUNCTION        0.44          0.915        0.295
  YS02001762           JUNCTION        0.41          0.858        0.292
  YS02001765           JUNCTION        0.36          0.932        0.168
  YS02001767           JUNCTION        0.31          1.013        0.017
  YS02001770           JUNCTION        0.28          0.920        0.000
  YS02001774           JUNCTION        0.39          1.050        0.000
  YS02001779           JUNCTION        0.14          0.680        0.000
  YS02001783           JUNCTION        0.42          0.522        1.078
  YS02001784           JUNCTION        0.40          0.385        1.105
  YS02001786           JUNCTION        0.30          0.098        1.332
  YS02001882           JUNCTION        0.37          0.830        0.000
  YS02001884           JUNCTION        0.38          0.870        0.000
  YS02001887           JUNCTION        0.42          0.862        0.088
  YS02001890           JUNCTION        0.43          0.760        0.000
  YS02001895           JUNCTION        0.36          0.750        0.000
  YS02001898           JUNCTION        0.35          0.740        0.000
  YS02001901           JUNCTION        0.40          0.866        0.004
  YS02001904           JUNCTION        0.39          0.850        0.000
  YS02001907           JUNCTION        0.60          0.950        0.000
  YS02001910           JUNCTION        0.45          0.998        0.102
  YS02001915           JUNCTION        0.37          0.957        0.043
  YS02001918           JUNCTION        0.28          0.810        0.000
  YS02001920           JUNCTION        0.29          1.104        0.036
  YS02001923           JUNCTION        0.01          0.820        0.000
  YS02001926           JUNCTION        0.01          0.900        0.000
  YS02001929           JUNCTION        0.01          0.780        0.000
  YS02006553           JUNCTION        0.62          0.996        0.194
  YS02006556           JUNCTION        0.53          0.957        0.393
  YS02006558           JUNCTION        0.52          0.939        0.461
  YS02006561           JUNCTION        0.24          0.264        0.886
  YS02163301           JUNCTION        0.71          0.920        0.110
  YS02163601           JUNCTION        0.75          1.016        0.064
  YS02164001           JUNCTION        0.66          0.934        0.166
  
  
  *********************
  Node Flooding Summary
  *********************
  
  Flooding refers to all water that overflows a node, whether it ponds or not.
  --------------------------------------------------------------------------
                                                             Total   Maximum
                                 Maximum   Time of Max       Flood    Ponded
                        Hours       Rate    Occurrence      Volume     Depth
  Node                 Flooded       LPS   days hr:min    10^6 ltr    Meters
  --------------------------------------------------------------------------
  WS02006242              0.01      1.76      0  01:56       0.000     0.000
  WS02006243              0.01      0.98      0  01:56       0.000     0.000
  WS02006248              0.01     43.36      0  01:47       0.000     0.000
  WS02006249              0.85    110.39      0  01:47       0.212     0.000
  WS02006252              0.01    245.63      0  00:00       0.000     0.000
  WS02006256              1.23    293.19      0  00:00       0.417     0.000
  YS02001580              0.01    171.56      0  01:37       0.001     0.000
  YS02001583              0.01    193.44      0  01:37       0.001     0.000
  YS02001586              0.28    154.58      0  01:37       0.044     0.000
  YS02001590              0.01     74.13      0  01:36       0.000     0.000
  YS02001600              0.01     10.38      0  01:36       0.000     0.000
  YS02001601              0.51    652.00      0  01:42       0.694     0.000
  YS02001602              0.36     61.95      0  01:48       0.070     0.000
  YS02001605              0.01     13.48      0  01:37       0.000     0.000
  YS02001607              0.01     29.06      0  01:37       0.000     0.000
  YS02001610              0.30    195.75      0  01:44       0.144     0.000
  YS02001613              0.01     96.01      0  01:37       0.000     0.000
  YS02001616              0.01     52.84      0  01:37       0.000     0.000
  YS02001619              0.01     73.46      0  01:37       0.000     0.000
  YS02001625              0.24    458.45      0  01:42       0.186     0.000
  YS02001629              0.01    270.70      0  01:37       0.002     0.000
  YS02001770              0.01    115.24      0  01:40       0.000     0.000
  YS02001774              0.01     80.13      0  01:40       0.000     0.000
  YS02001779              0.01    369.85      0  01:40       0.002     0.000
  YS02001882              0.01     52.01      0  01:38       0.000     0.000
  YS02001884              0.01     24.60      0  01:38       0.000     0.000
  YS02001890              0.01    159.52      0  01:38       0.001     0.000
  YS02001895              0.01    179.05      0  01:38       0.000     0.000
  YS02001898              0.01    171.07      0  01:38       0.000     0.000
  YS02001904              0.01     60.41      0  01:38       0.000     0.000
  YS02001907              0.22    903.92      0  01:40       0.301     0.000
  YS02001918              0.01    171.02      0  01:40       0.002     0.000
  YS02001923              0.01    298.43      0  01:39       0.001     0.000
  YS02001926              0.01    466.84      0  01:39       0.002     0.000
  YS02001929              0.01    178.77      0  01:40       0.001     0.000
  
  
  **********************
  Storage Volume Summary
  **********************
  
  ------------------------------------------------------------------------------------------------
                         Average    Avg   Evap  Exfil     Maximum    Max    Time of Max    Maximum
                          Volume   Pcnt   Pcnt   Pcnt      Volume   Pcnt     Occurrence    Outflow
  Storage Unit           1000 m³   Full   Loss   Loss     1000 m³   Full    days hr:min        LPS
  ------------------------------------------------------------------------------------------------
  CC-storage               2.233   34.8    0.0    0.0       3.837   59.9       0  02:09    1783.53
  JK-storage               0.143   48.9    0.0    0.0       0.212   72.9       0  01:41    2300.00
  
  
  ***********************
  Outfall Loading Summary
  ***********************
  
  -----------------------------------------------------------
                         Flow       Avg       Max       Total
                         Freq      Flow      Flow      Volume
  Outfall Node           Pcnt       LPS       LPS    10^6 ltr
  -----------------------------------------------------------
  CC-1                  13.81    683.00    683.00       2.887
  CC-2                  14.10    683.00    683.00       2.627
  JK-1                   6.54   1000.00   1000.00       1.631
  JK-2                   2.44   1000.00   1000.00       0.648
  WSC                   99.97    271.30    556.38       5.974
  -----------------------------------------------------------
  System                27.37   3637.30   3820.95      13.767
  
  
  ********************
  Link Flow Summary
  ********************
  
  -----------------------------------------------------------------------------
                                 Maximum  Time of Max   Maximum    Max/    Max/
                                  |Flow|   Occurrence   |Veloc|    Full    Full
  Link                 Type          LPS  days hr:min     m/sec    Flow   Depth
  -----------------------------------------------------------------------------
  1                    CONDUIT    556.38     0  02:24      2.83    0.19    0.30
  WS02003060WS02003069 CONDUIT    555.03     0  02:20      1.64    0.22    0.34
  WS02003066WSF200     CONDUIT    538.49     0  02:19      2.85    0.09    0.22
  WS02003067WS02003066 CONDUIT    538.39     0  02:19      1.21    0.17    0.42
  WS02003069WS02003072 CONDUIT    555.02     0  02:23      1.37    0.27    0.39
  WS02003072WS02003073 CONDUIT    554.81     0  02:24      1.44    1.20    0.37
  WS02004401WS02004402 CONDUIT    540.97     0  02:14      0.98    0.65    0.89
  WS02004402WS02004403 CONDUIT    542.40     0  02:44      0.97    0.78    0.91
  WS02004403WS02004404 CONDUIT    561.28     0  02:20      0.92    0.41    0.96
  WS02004404WS02004405 CONDUIT    602.89     0  02:07      1.08    5.91    0.98
  WS02004405WS02004406 CONDUIT    547.36     0  02:15      0.99    1.08    0.96
  WS02004406WS02004407 CONDUIT    540.68     0  02:15      1.04    0.24    0.63
  WS02004407WS02004409 CONDUIT    539.76     0  02:15      1.63    0.19    0.48
  WS02004409WS02004410 CONDUIT    539.29     0  02:15      1.00    0.70    0.68
  WS02004410WS02004411 CONDUIT    538.99     0  02:16      0.94    0.74    0.69
  WS02004411WS02004412 CONDUIT    538.89     0  02:16      0.93    0.77    0.69
  WS02004412WS02004413 CONDUIT    538.76     0  02:16      0.82    0.36    0.78
  WS02004413WS02003067 CONDUIT    538.33     0  02:17      1.11    0.23    0.59
  WS02006109WS02006110 CONDUIT    567.73     0  02:59      1.13    1.09    1.00
  WS02006110WS02006113 CONDUIT    583.03     0  02:59      1.40    0.53    0.79
  WS02006111WS02006112 CONDUIT    544.26     0  02:59      1.81    0.26    0.67
  WS02006112WS02006115 CONDUIT    563.88     0  02:59      0.83    0.33    0.88
  WS02006113WS02006111 CONDUIT    568.98     0  02:59      2.48    0.68    0.47
  WS02006115WS02006116 CONDUIT    544.19     0  01:59      1.11    0.70    0.78
  WS02006116WS02004401 CONDUIT    542.44     0  02:14      0.98    0.75    0.86
  WS02006228WS02006109 CONDUIT    563.80     0  02:59      1.12    2.46    1.00
  WS02006229WS02006228 CONDUIT    559.69     0  02:59      1.14    1.85    1.00
  WS02006230WS02006229 CONDUIT    560.44     0  02:59      1.46   12.47    1.00
  WS02006231WS02006230 CONDUIT    572.21     0  01:55      1.58    8.68    1.00
  WS02006232WS02006231 CONDUIT    574.79     0  01:56      1.50    1.20    1.00
  WS02006234WS02006232 CONDUIT    573.54     0  01:56      1.49    1.16    1.00
  WS02006235WS02006234 CONDUIT    568.76     0  01:56      1.48    6.00    1.00
  WS02006238WS02006235 CONDUIT    424.61     0  02:20      1.45    0.95    1.00
  WS02006239WS02006238 CONDUIT    422.68     0  02:20      1.10    1.35    1.00
  WS02006240WS02006239 CONDUIT    422.65     0  02:20      1.24    1.33    1.00
  WS02006242WS02006240 CONDUIT    419.96     0  02:20      1.13    1.67    1.00
  WS02006243WS02006242 CONDUIT    419.72     0  02:20      1.40    0.90    1.00
  WS02006245WS02006243 CONDUIT    418.84     0  02:20      1.45    1.24    1.00
  WS02006247WS02006245 CONDUIT    418.81     0  02:20      1.43    3.32    1.00
  WS02006248WS02006247 CONDUIT    418.03     0  02:20      1.44    0.91    1.00
  WS02006249WS02006248 CONDUIT    417.93     0  01:50      1.36    2.29    1.00
  WS02006251WS02006249 CONDUIT    459.02     0  00:00      1.99    1.32    1.00
  WS02006252WS02006251 CONDUIT    408.16     0  01:47     27.82    1.50    1.00
  WS02006256WS02006235 CONDUIT    288.91     0  00:00      4.23    3.06    1.00
  WSF200WS02003060     CONDUIT    538.96     0  02:19      2.06    0.12    0.28
  YS02001580YS02001583 CONDUIT    227.63     0  01:37      1.01    0.88    1.00
  YS02001583YS02001586 CONDUIT    220.12     0  01:37      1.01    0.33    1.00
  YS02001586YS02001590 CONDUIT    318.02     0  01:51      1.30    0.56    1.00
  YS02001590YS02001593 CONDUIT    317.94     0  01:51      1.12    2.00    1.00
  YS02001593YS02001596 CONDUIT    318.20     0  01:47      1.72    0.50    1.00
  YS02001596YS02001600 CONDUIT    317.96     0  01:47      1.18    0.62    1.00
  YS02001600YS02001601 CONDUIT    317.85     0  01:47      1.12    0.55    1.00
  YS02001601YS02001602 CONDUIT    587.71     0  01:37      2.08    2.12    1.00
  YS02001602YS02001605 CONDUIT    587.99     0  01:37      2.08   12.44    1.00
  YS02001605YS02001607 CONDUIT    587.45     0  01:37      2.08    3.22    1.00
  YS02001607YS02001610 CONDUIT    558.73     0  01:37      0.75    0.53    1.00
  YS02001610YS02001613 CONDUIT    527.70     0  01:37      0.71    0.61    1.00
  YS02001613YS02001616 CONDUIT    489.49     0  02:07      0.70    0.42    1.00
  YS02001616YS02001619 CONDUIT    492.03     0  02:07      0.66    0.85    1.00
  YS02001619YS02001622 CONDUIT    896.37     0  01:39      1.36    1.32    1.00
  YS02001622YS02001625 CONDUIT    895.84     0  01:39      1.14    0.48    1.00
  YS02001625YS02001629 CONDUIT    896.20     0  01:39      1.14    0.43    1.00
  YS02001629YS02163301 CONDUIT    894.32     0  01:39      1.14    1.10    1.00
  YS02001633YS02163601 CONDUIT   1395.15     0  01:39      1.78    1.46    1.00
  YS02001641YS02001644 CONDUIT   1395.12     0  01:39      1.78    4.51    1.00
  YS02001644YS02001647 CONDUIT   1852.75     0  01:39      2.37    1.09    1.00
  YS02001647YS02001649 CONDUIT   1851.42     0  01:39      2.36    0.98    1.00
  YS02001649YS02001757 CONDUIT   2192.07     0  01:39      2.79    1.33    1.00
  YS02001652YS02001649 CONDUIT    552.96     0  01:43      0.92    0.27    1.00
  YS02001655YS02001652 CONDUIT    552.47     0  01:43      1.64    0.27    1.00
  YS02001658YS02001655 CONDUIT    640.86     0  01:41      2.09    0.27    0.98
  YS02001661YS02001658 CONDUIT    669.71     0  01:45      2.38    0.26    0.74
  YS02001664YS02001661 CONDUIT    467.25     0  01:40      2.25    0.15    0.45
  YS02001745YS02001748 CONDUIT    416.34     0  01:42      2.24    0.16    0.50
  YS02001748YS02001751 CONDUIT    535.23     0  01:42      1.87    0.27    0.86
  YS02001751YS02001754 CONDUIT    380.62     0  01:45      1.69    0.18    1.00
  YS02001754YS02001757 CONDUIT    386.41     0  01:45      0.66    0.16    1.00
  YS02001757CaochengTiaoxuchi CONDUIT   3160.37     0  01:42      4.18    1.37    1.00
  YS02001759YS02001757 CONDUIT   1118.04     0  01:40      1.42    0.79    1.00
  YS02001762YS02001759 CONDUIT    684.42     0  01:40      0.87    0.79    1.00
  YS02001765YS02001762 CONDUIT    678.53     0  01:40      0.86    0.64    1.00
  YS02001767YS02001765 CONDUIT    672.59     0  01:40      0.89    0.85    1.00
  YS02001770YS02001767 CONDUIT    668.41     0  01:40      0.95    2.65    1.00
  YS02001774YS02001770 CONDUIT    401.45     0  01:40      0.51    0.26    1.00
  YS02001779YS02001774 CONDUIT    408.37     0  01:40      0.52    0.21    1.00
  YS02001783YS02001784 CONDUIT   1148.51     0  01:40      2.28    1.58    1.00
  YS02001784YS02001785 CONDUIT   1149.43     0  01:40      2.29    2.67    1.00
  YS02001786YS02001788 CONDUIT   1153.20     0  01:39      2.48    2.22    0.89
  YS02001788YS02001790 CONDUIT   1165.85     0  01:39      2.70    0.86    0.84
  YS02001790YS02001791 CONDUIT   1286.60     0  01:40      3.43    1.40    0.70
  YS02001791YS02001793 CONDUIT   1237.91     0  01:41      6.77    0.53    0.45
  YS02001793JiankangQianchi CONDUIT   1243.65     0  01:49      2.50    0.10    0.65
  YS02001882YS02001884 CONDUIT     79.07     0  01:38      0.14    0.09    1.00
  YS02001884YS02001887 CONDUIT    143.36     0  01:38      0.18    0.19    1.00
  YS02001887YS02001890 CONDUIT    544.70     0  01:38      0.69    0.93    1.00
  YS02001890YS02001895 CONDUIT    556.75     0  01:38      0.71    0.26    1.00
  YS02001895YS02001898 CONDUIT    525.26     0  01:38      0.67    0.91    1.00
  YS02001898YS02001901 CONDUIT    534.76     0  01:38      0.68    0.34    1.00
  YS02001901YS02001904 CONDUIT    535.28     0  01:38      0.68    0.83    1.00
  YS02001904YS02001907 CONDUIT    536.26     0  01:38      0.68    0.19    1.00
  YS02001907YS02006553 CONDUIT    788.00     0  01:53      0.88    0.93    1.00
  YS02001910YS02001907 CONDUIT    963.98     0  01:40      1.23    0.54    1.00
  YS02001915YS02001910 CONDUIT    963.32     0  01:40      1.23    0.48    1.00
  YS02001918YS02001915 CONDUIT    547.09     0  01:38      0.74    0.30    1.00
  YS02001920YS02001918 CONDUIT    459.48     0  01:39      0.67    0.44    1.00
  YS02001923YS02001920 CONDUIT    460.24     0  01:39      0.83    0.21    1.00
  YS02001926YS02001923 CONDUIT    570.85     0  01:39      0.99    0.82    1.00
  YS02001929YS02001926 CONDUIT    466.00     0  01:39      1.15    0.22    1.00
  YS02006553YS02006556 CONDUIT    787.36     0  01:53      1.00    0.67    1.00
  YS02006556YS02006558 CONDUIT    789.41     0  01:53      1.01    0.62    1.00
  YS02006558YS02006561 CONDUIT   1181.62     0  01:39      4.18    2.61    1.00
  YS02006561YS02001783 CONDUIT   1148.24     0  01:40      2.28    0.59    1.00
  YS02163301YS02001633 CONDUIT    894.97     0  01:38      1.14    0.84    1.00
  YS02163601YS02164001 CONDUIT   1395.49     0  01:39      1.78    1.24    1.00
  YS02164001YS02001641 CONDUIT   1395.89     0  01:38      1.78    1.91    1.00
  CC-R1                PUMP       683.00     0  00:00              1.00
  CC-R2                PUMP       683.00     0  00:00              1.00
  CC-S1                PUMP       200.00     0  00:00              1.00
  CC-S2                PUMP       200.00     0  00:00              1.00
  JK-R1                PUMP      1000.00     0  00:00              1.00
  JK-R2                PUMP      1000.00     0  00:00              1.00
  JK-S                 PUMP       300.00     0  00:00              1.00
  
  
  ***************************
  Flow Classification Summary
  ***************************
  
  -------------------------------------------------------------------------------------
                      Adjusted    ---------- Fraction of Time in Flow Class ---------- 
                       /Actual         Up    Down  Sub   Sup   Up    Down  Norm  Inlet 
  Conduit               Length    Dry  Dry   Dry   Crit  Crit  Crit  Crit  Ltd   Ctrl  
  -------------------------------------------------------------------------------------
  1                       1.00   0.00  0.00  0.00  0.00  1.00  0.00  0.00  0.48  0.00
  WS02003060WS02003069    1.00   0.00  0.00  0.00  0.98  0.02  0.00  0.00  0.66  0.00
  WS02003066WSF200        1.00   0.13  0.00  0.00  0.00  0.87  0.00  0.00  0.76  0.00
  WS02003067WS02003066    1.00   0.10  0.02  0.00  0.88  0.00  0.00  0.00  0.00  0.00
  WS02003069WS02003072    1.00   0.00  0.00  0.00  0.99  0.01  0.00  0.00  0.74  0.00
  WS02003072WS02003073    1.00   0.00  0.00  0.00  0.00  0.00  0.00  1.00  0.00  0.00
  WS02004401WS02004402    1.00   0.02  0.00  0.00  0.98  0.00  0.00  0.00  0.00  0.00
  WS02004402WS02004403    1.00   0.02  0.00  0.00  0.97  0.00  0.00  0.00  0.00  0.00
  WS02004403WS02004404    1.00   0.00  0.03  0.00  0.97  0.00  0.00  0.00  0.00  0.00
  WS02004404WS02004405    1.00   0.00  0.00  0.00  1.00  0.00  0.00  0.00  0.01  0.00
  WS02004405WS02004406    1.00   0.00  0.00  0.00  1.00  0.00  0.00  0.00  0.00  0.00
  WS02004406WS02004407    1.00   0.00  0.05  0.00  0.95  0.00  0.00  0.00  0.00  0.00
  WS02004407WS02004409    1.00   0.05  0.00  0.00  0.94  0.01  0.00  0.00  0.94  0.00
  WS02004409WS02004410    1.00   0.05  0.00  0.00  0.95  0.00  0.00  0.00  0.03  0.00
  WS02004410WS02004411    1.00   0.05  0.00  0.00  0.95  0.00  0.00  0.00  0.01  0.00
  WS02004411WS02004412    1.00   0.05  0.00  0.00  0.95  0.00  0.00  0.00  0.00  0.00
  WS02004412WS02004413    1.00   0.05  0.00  0.00  0.94  0.00  0.00  0.00  0.01  0.00
  WS02004413WS02003067    1.00   0.06  0.04  0.00  0.00  0.00  0.90  0.00  0.00  0.00
  WS02006109WS02006110    1.00   0.00  0.01  0.00  0.98  0.00  0.01  0.00  0.00  0.00
  WS02006110WS02006113    1.00   0.01  0.01  0.00  0.98  0.00  0.00  0.00  0.00  0.00
  WS02006111WS02006112    1.00   0.02  0.00  0.00  0.98  0.00  0.00  0.00  0.98  0.00
  WS02006112WS02006115    1.00   0.02  0.00  0.00  0.97  0.00  0.00  0.00  0.00  0.00
  WS02006113WS02006111    1.00   0.02  0.00  0.00  0.00  0.98  0.00  0.00  0.15  0.00
  WS02006115WS02006116    1.00   0.02  0.00  0.00  0.97  0.00  0.00  0.01  0.00  0.00
  WS02006116WS02004401    1.00   0.02  0.00  0.00  0.98  0.00  0.00  0.00  0.00  0.00
  WS02006228WS02006109    1.00   0.00  0.00  0.00  1.00  0.00  0.00  0.00  0.01  0.00
  WS02006229WS02006228    1.00   0.00  0.00  0.00  0.99  0.00  0.00  0.01  0.00  0.00
  WS02006230WS02006229    1.00   0.00  0.00  0.00  0.99  0.00  0.00  0.01  0.00  0.00
  WS02006231WS02006230    1.00   0.00  0.00  0.00  0.27  0.00  0.73  0.00  0.00  0.00
  WS02006232WS02006231    1.00   0.00  0.00  0.00  0.99  0.00  0.01  0.00  0.00  0.00
  WS02006234WS02006232    1.00   0.00  0.00  0.00  1.00  0.00  0.00  0.00  0.17  0.00
  WS02006235WS02006234    1.00   0.00  0.00  0.00  0.77  0.00  0.23  0.00  0.00  0.00
  WS02006238WS02006235    1.00   0.00  0.00  0.00  1.00  0.00  0.00  0.00  0.00  0.00
  WS02006239WS02006238    1.00   0.00  0.00  0.00  1.00  0.00  0.00  0.00  0.28  0.00
  WS02006240WS02006239    1.00   0.00  0.00  0.00  0.63  0.00  0.00  0.37  0.01  0.00
  WS02006242WS02006240    1.00   0.00  0.00  0.00  0.99  0.00  0.01  0.00  0.00  0.00
  WS02006243WS02006242    1.00   0.00  0.00  0.00  0.99  0.00  0.00  0.01  0.44  0.00
  WS02006245WS02006243    1.00   0.00  0.00  0.00  0.71  0.00  0.00  0.29  0.00  0.00
  WS02006247WS02006245    1.00   0.00  0.00  0.00  0.98  0.00  0.00  0.02  0.00  0.00
  WS02006248WS02006247    1.00   0.00  0.00  0.00  0.99  0.00  0.00  0.01  0.19  0.00
  WS02006249WS02006248    1.00   0.00  0.00  0.00  0.57  0.00  0.43  0.00  0.00  0.00
  WS02006251WS02006249    1.00   0.00  0.00  0.00  0.99  0.00  0.00  0.00  0.45  0.00
  WS02006252WS02006251    1.00   0.00  0.20  0.00  0.11  0.00  0.69  0.00  0.00  0.00
  WS02006256WS02006235    1.00   0.00  0.00  0.00  1.00  0.00  0.00  0.00  0.00  0.00
  WSF200WS02003060        1.00   0.00  0.13  0.00  0.29  0.58  0.00  0.00  0.40  0.00
  YS02001580YS02001583    1.00   0.20  0.63  0.00  0.17  0.00  0.00  0.00  0.72  0.00
  YS02001583YS02001586    1.00   0.43  0.33  0.00  0.23  0.00  0.00  0.00  0.72  0.00
  YS02001586YS02001590    1.00   0.13  0.00  0.00  0.40  0.04  0.00  0.43  0.35  0.00
  YS02001590YS02001593    1.00   0.13  0.01  0.00  0.09  0.00  0.77  0.00  0.00  0.00
  YS02001593YS02001596    1.00   0.14  0.00  0.00  0.11  0.01  0.00  0.74  0.02  0.00
  YS02001596YS02001600    1.00   0.14  0.00  0.00  0.20  0.01  0.00  0.66  0.07  0.00
  YS02001600YS02001601    1.00   0.13  0.01  0.00  0.86  0.00  0.00  0.00  0.61  0.00
  YS02001601YS02001602    1.00   0.13  0.01  0.00  0.86  0.00  0.00  0.00  0.00  0.00
  YS02001602YS02001605    1.00   0.14  0.00  0.00  0.86  0.00  0.00  0.00  0.00  0.00
  YS02001605YS02001607    1.00   0.14  0.00  0.00  0.86  0.00  0.00  0.00  0.00  0.00
  YS02001607YS02001610    1.00   0.13  0.01  0.00  0.86  0.00  0.00  0.00  0.02  0.00
  YS02001610YS02001613    1.00   0.13  0.00  0.00  0.87  0.00  0.00  0.00  0.00  0.00
  YS02001613YS02001616    1.00   0.13  0.00  0.00  0.87  0.00  0.00  0.00  0.00  0.00
  YS02001616YS02001619    1.00   0.13  0.00  0.00  0.87  0.00  0.00  0.00  0.00  0.00
  YS02001619YS02001622    1.00   0.13  0.00  0.00  0.87  0.00  0.00  0.00  0.30  0.00
  YS02001622YS02001625    1.00   0.13  0.00  0.00  0.87  0.00  0.00  0.00  0.04  0.00
  YS02001625YS02001629    1.00   0.13  0.05  0.00  0.14  0.00  0.68  0.00  0.00  0.00
  YS02001629YS02163301    1.00   0.15  0.01  0.00  0.84  0.00  0.00  0.00  0.00  0.00
  YS02001633YS02163601    1.00   0.00  0.01  0.00  0.99  0.00  0.00  0.00  0.15  0.00
  YS02001641YS02001644    1.00   0.00  0.01  0.00  0.99  0.00  0.00  0.00  0.00  0.00
  YS02001644YS02001647    1.00   0.00  0.17  0.00  0.83  0.00  0.00  0.00  0.00  0.00
  YS02001647YS02001649    1.00   0.00  0.17  0.00  0.52  0.31  0.00  0.00  0.58  0.00
  YS02001649YS02001757    1.00   0.00  0.00  0.00  0.76  0.23  0.00  0.00  0.47  0.00
  YS02001652YS02001649    1.00   0.00  0.00  0.00  0.97  0.03  0.00  0.00  0.74  0.00
  YS02001655YS02001652    1.00   0.00  0.00  0.00  0.16  0.03  0.00  0.81  0.08  0.00
  YS02001658YS02001655    1.00   0.00  0.14  0.00  0.63  0.23  0.00  0.00  0.73  0.00
  YS02001661YS02001658    1.00   0.14  0.00  0.00  0.47  0.39  0.00  0.00  0.77  0.00
  YS02001664YS02001661    1.00   0.13  0.00  0.00  0.74  0.13  0.00  0.00  0.86  0.00
  YS02001745YS02001748    1.00   0.00  0.00  0.00  0.05  0.01  0.00  0.93  0.06  0.00
  YS02001748YS02001751    1.00   0.00  0.00  0.00  0.79  0.21  0.00  0.00  0.80  0.00
  YS02001751YS02001754    1.00   0.00  0.00  0.00  0.13  0.00  0.00  0.87  0.04  0.00
  YS02001754YS02001757    1.00   0.00  0.00  0.00  1.00  0.00  0.00  0.00  0.86  0.00
  YS02001757CaochengTiaoxuchi    1.00   0.00  0.00  0.00  0.98  0.02  0.00  0.00  0.74  0.00
  YS02001759YS02001757    1.00   0.00  0.00  0.00  1.00  0.00  0.00  0.00  0.56  0.00
  YS02001762YS02001759    1.00   0.00  0.00  0.00  1.00  0.00  0.00  0.00  0.05  0.00
  YS02001765YS02001762    1.00   0.00  0.00  0.00  1.00  0.00  0.00  0.00  0.74  0.00
  YS02001767YS02001765    1.00   0.00  0.00  0.00  1.00  0.00  0.00  0.00  0.00  0.00
  YS02001770YS02001767    1.00   0.00  0.00  0.00  1.00  0.00  0.00  0.00  0.00  0.00
  YS02001774YS02001770    1.00   0.00  0.13  0.00  0.69  0.00  0.17  0.00  0.03  0.00
  YS02001779YS02001774    1.00   0.00  0.00  0.00  1.00  0.00  0.00  0.00  0.79  0.00
  YS02001783YS02001784    1.00   0.00  0.18  0.00  0.82  0.00  0.00  0.00  0.56  0.00
  YS02001784YS02001785    1.00   0.00  0.00  0.00  1.00  0.00  0.00  0.00  0.17  0.00
  YS02001786YS02001788    1.00   0.00  0.00  0.00  0.78  0.22  0.00  0.00  0.00  0.00
  YS02001788YS02001790    1.00   0.00  0.00  0.00  0.20  0.80  0.00  0.00  0.82  0.00
  YS02001790YS02001791    1.00   0.00  0.00  0.00  0.01  0.99  0.00  0.00  0.17  0.00
  YS02001791YS02001793    1.00   0.00  0.00  0.00  0.00  1.00  0.00  0.00  0.01  0.00
  YS02001793JiankangQianchi    1.00   0.00  0.00  0.00  0.98  0.02  0.00  0.00  0.97  0.00
  YS02001882YS02001884    1.00   0.15  0.01  0.00  0.84  0.00  0.00  0.00  0.00  0.00
  YS02001884YS02001887    1.00   0.06  0.05  0.00  0.89  0.00  0.00  0.00  0.00  0.00
  YS02001887YS02001890    1.00   0.00  0.00  0.00  0.97  0.00  0.03  0.00  0.00  0.00
  YS02001890YS02001895    1.00   0.00  0.16  0.00  0.84  0.00  0.00  0.00  0.00  0.00
  YS02001895YS02001898    1.00   0.17  0.00  0.00  0.82  0.00  0.01  0.00  0.00  0.00
  YS02001898YS02001901    1.00   0.17  0.00  0.00  0.83  0.00  0.00  0.00  0.01  0.00
  YS02001901YS02001904    1.00   0.17  0.00  0.00  0.83  0.00  0.00  0.00  0.00  0.00
  YS02001904YS02001907    1.00   0.00  0.16  0.00  0.83  0.00  0.00  0.00  0.00  0.00
  YS02001907YS02006553    1.00   0.00  0.02  0.00  0.98  0.00  0.00  0.00  0.00  0.00
  YS02001910YS02001907    1.00   0.00  0.00  0.00  0.97  0.00  0.00  0.03  0.12  0.00
  YS02001915YS02001910    1.00   0.00  0.00  0.00  0.97  0.03  0.00  0.00  0.16  0.00
  YS02001918YS02001915    1.00   0.00  0.01  0.00  0.98  0.02  0.00  0.00  0.77  0.00
  YS02001920YS02001918    1.00   0.00  0.01  0.00  0.99  0.00  0.00  0.00  0.00  0.00
  YS02001923YS02001920    1.00   0.00  0.00  0.00  1.00  0.00  0.00  0.00  0.94  0.00
  YS02001926YS02001923    1.00   0.00  0.07  0.00  0.05  0.00  0.88  0.00  0.00  0.00
  YS02001929YS02001926    1.00   0.00  0.13  0.00  0.87  0.00  0.00  0.00  0.83  0.00
  YS02006553YS02006556    1.00   0.01  0.00  0.00  0.99  0.00  0.00  0.00  0.03  0.00
  YS02006556YS02006558    1.00   0.00  0.00  0.00  1.00  0.00  0.00  0.00  0.00  0.00
  YS02006558YS02006561    1.00   0.18  0.00  0.00  0.04  0.78  0.00  0.00  0.20  0.00
  YS02006561YS02001783    1.00   0.18  0.00  0.00  0.07  0.75  0.00  0.00  0.71  0.00
  YS02163301YS02001633    1.00   0.00  0.15  0.00  0.85  0.00  0.00  0.00  0.00  0.00
  YS02163601YS02164001    1.00   0.00  0.08  0.00  0.92  0.00  0.00  0.00  0.00  0.00
  YS02164001YS02001641    1.00   0.01  0.07  0.00  0.92  0.00  0.00  0.00  0.06  0.00
  
  
  *************************
  Conduit Surcharge Summary
  *************************
  
  ----------------------------------------------------------------------------
                                                           Hours        Hours 
                         --------- Hours Full --------   Above Full   Capacity
  Conduit                Both Ends  Upstream  Dnstream   Normal Flow   Limited
  ----------------------------------------------------------------------------
  WS02003072WS02003073        0.01      0.01      0.01      1.01         0.01
  WS02004403WS02004404        0.01      0.01      0.03      0.01         0.01
  WS02004404WS02004405        0.01      0.03      0.01      4.26         0.01
  WS02004405WS02004406        0.01      0.01      0.01      0.70         0.01
  WS02006109WS02006110        0.76      0.76      1.93      0.82         0.01
  WS02006110WS02006113        0.01      0.01      1.89      0.01         0.01
  WS02006111WS02006112        0.01      0.01      2.56      0.01         0.01
  WS02006112WS02006115        0.01      0.01      0.84      0.01         0.01
  WS02006228WS02006109        1.84      1.93      1.84      3.02         1.84
  WS02006229WS02006228        1.81      1.86      1.81      2.40         1.81
  WS02006230WS02006229        2.02      2.30      2.02      4.54         2.02
  WS02006231WS02006230        0.77      0.77      0.85      4.39         0.01
  WS02006232WS02006231        0.83      0.83      1.96      0.89         0.01
  WS02006234WS02006232        1.78      1.78      1.96      0.87         0.87
  WS02006235WS02006234        1.11      1.11      1.85      4.24         0.01
  WS02006238WS02006235        1.87      1.88      1.96      0.01         0.01
  WS02006239WS02006238        1.86      1.87      1.90      2.01         1.67
  WS02006240WS02006239        1.76      1.78      1.82      2.00         1.62
  WS02006242WS02006240        1.76      1.76      1.91      2.31         0.01
  WS02006243WS02006242        1.75      1.75      1.82      0.01         0.02
  WS02006245WS02006243        1.74      1.74      1.74      1.26         0.95
  WS02006247WS02006245        1.73      1.75      1.73      4.09         1.72
  WS02006248WS02006247        1.72      1.72      1.74      0.01         0.02
  WS02006249WS02006248        1.71      1.72      1.72      4.05         0.01
  WS02006251WS02006249        1.71      1.72      1.72      2.14         1.67
  WS02006252WS02006251        2.20      2.20      2.21      2.21         0.01
  WS02006256WS02006235        4.28      4.30      5.64      1.23         0.01
  YS02001580YS02001583        0.41      0.42      0.48      0.01         0.01
  YS02001583YS02001586        0.42      0.42      0.59      0.01         0.01
  YS02001586YS02001590        0.59      0.59      0.66      0.01         0.01
  YS02001590YS02001593        0.65      0.65      0.67      0.72         0.01
  YS02001593YS02001596        0.66      0.66      0.75      0.01         0.01
  YS02001596YS02001600        0.79      0.79      0.90      0.01         0.01
  YS02001600YS02001601        0.97      0.97      1.34      0.01         0.01
  YS02001601YS02001602        1.18      1.18      1.40      0.93         0.01
  YS02001602YS02001605        1.11      1.11      1.18      2.11         0.01
  YS02001605YS02001607        1.06      1.11      1.06      1.27         1.06
  YS02001607YS02001610        0.60      0.60      0.63      0.01         0.01
  YS02001610YS02001613        0.60      0.60      0.63      0.01         0.01
  YS02001613YS02001616        0.55      0.55      0.60      0.01         0.01
  YS02001616YS02001619        0.55      0.55      0.55      0.01         0.01
  YS02001619YS02001622        0.54      0.55      0.54      0.70         0.52
  YS02001622YS02001625        0.54      0.54      0.71      0.01         0.01
  YS02001625YS02001629        0.47      0.47      0.71      0.01         0.01
  YS02001629YS02163301        0.70      0.70      0.71      0.28         0.25
  YS02001633YS02163601        0.72      0.72      0.75      0.53         0.53
  YS02001641YS02001644        0.62      0.65      0.62      1.48         0.61
  YS02001644YS02001647        0.40      0.40      0.62      0.04         0.01
  YS02001647YS02001649        0.40      0.40      0.52      0.01         0.01
  YS02001649YS02001757        0.51      0.52      0.55      0.33         0.29
  YS02001652YS02001649        0.32      0.32      0.52      0.01         0.01
  YS02001655YS02001652        0.08      0.08      0.28      0.01         0.01
  YS02001658YS02001655        0.01      0.01      0.08      0.01         0.01
  YS02001748YS02001751        0.01      0.01      0.01      0.01         0.01
  YS02001751YS02001754        0.01      0.01      0.10      0.01         0.01
  YS02001754YS02001757        0.15      0.15      0.55      0.01         0.01
  YS02001757CaochengTiaoxuchi        0.44      0.55      1.66      0.30         0.17
  YS02001759YS02001757        0.44      0.44      0.55      0.01         0.01
  YS02001762YS02001759        0.41      0.41      0.44      0.01         0.01
  YS02001765YS02001762        0.36      0.36      0.41      0.01         0.01
  YS02001767YS02001765        0.31      0.31      0.36      0.01         0.01
  YS02001770YS02001767        0.31      0.32      0.31      0.43         0.27
  YS02001774YS02001770        0.28      0.28      0.39      0.01         0.01
  YS02001779YS02001774        0.14      0.14      0.39      0.01         0.01
  YS02001783YS02001784        0.40      0.42      0.40      0.55         0.40
  YS02001784YS02001785        0.30      0.40      0.30      0.77         0.30
  YS02001786YS02001788        0.01      0.30      0.01      0.64         0.01
  YS02001790YS02001791        0.01      0.01      0.01      0.39         0.01
  YS02001793JiankangQianchi        0.01      0.01      7.54      0.01         0.01
  YS02001882YS02001884        0.37      0.37      0.38      0.01         0.01
  YS02001884YS02001887        0.40      0.40      0.42      0.01         0.01
  YS02001887YS02001890        0.43      0.43      0.44      0.01         0.01
  YS02001890YS02001895        0.36      0.36      0.45      0.01         0.01
  YS02001895YS02001898        0.35      0.35      0.36      0.01         0.01
  YS02001898YS02001901        0.36      0.36      0.40      0.01         0.01
  YS02001901YS02001904        0.39      0.39      0.40      0.01         0.01
  YS02001904YS02001907        0.39      0.39      0.62      0.01         0.01
  YS02001907YS02006553        0.78      0.78      0.85      0.01         0.01
  YS02001910YS02001907        0.45      0.45      0.60      0.01         0.01
  YS02001915YS02001910        0.37      0.37      0.45      0.01         0.01
  YS02001918YS02001915        0.28      0.28      0.37      0.01         0.01
  YS02001920YS02001918        0.28      0.28      0.29      0.01         0.01
  YS02001923YS02001920        0.22      0.22      0.29      0.01         0.01
  YS02001926YS02001923        0.01      0.01      0.01      0.01         0.01
  YS02001929YS02001926        0.01      0.01      0.01      0.01         0.01
  YS02006553YS02006556        0.53      0.53      0.62      0.01         0.01
  YS02006556YS02006558        0.57      0.57      0.64      0.01         0.01
  YS02006558YS02006561        0.32      0.52      0.32      0.73         0.32
  YS02006561YS02001783        0.24      0.24      0.42      0.01         0.01
  YS02163301YS02001633        0.71      0.71      0.74      0.01         0.01
  YS02163601YS02164001        0.66      0.66      0.75      0.17         0.01
  YS02164001YS02001641        0.65      0.66      0.65      0.79         0.65
  
  
  ***************
  Pumping Summary
  ***************
  
  ---------------------------------------------------------------------------------------------------------
                                                  Min       Avg       Max     Total     Power    % Time Off
                        Percent   Number of      Flow      Flow      Flow    Volume     Usage    Pump Curve
  Pump                 Utilized   Start-Ups       LPS       LPS       LPS  10^6 ltr     Kw-hr    Low   High
  ---------------------------------------------------------------------------------------------------------
  CC-R1                   14.68           4      0.00    683.00    683.00     2.888     52.56    0.0   14.8
  CC-R2                   13.36           5      0.00    683.00    683.00     2.628     47.43    0.0   24.1
  CC-S1                   49.57          12      0.00    200.00    200.00     2.855     17.88    0.0    0.0
  CC-S2                   29.65          12      0.00    200.00    200.00     1.708     10.66    0.0    0.0
  JK-R1                    5.66          10      0.00   1000.00   1000.00     1.630     16.17    0.0    0.0
  JK-R2                    2.24           6      0.00   1000.00   1000.00     0.645      6.07    0.0    0.0
  JK-S                    15.37          11      0.00    300.00    300.00     1.328     21.29    0.0    0.0
  

  Analysis begun on:  Wed Apr 23 23:58:45 2025
  Analysis ended on:  Wed Apr 23 23:58:47 2025
  Total elapsed time: 00:00:02