
  EPA STORM WATER MANAGEMENT MODEL - VERSION 5.2 (Build 5.2.4)
  PYSWMM TOOLKIT API - VERSION v1.0 (2023-11-27)
  ------------------------------------------------------------

  WARNING 04: minimum elevation drop used for Conduit WS02004404WS02004405
  WARNING 03: negative offset ignored for Link YS02001904YS02001907
  
  ****************
  Analysis Options
  ****************
  Flow Units ............... LPS
  Process Models:
    Rainfall/Runoff ........ YES
    RDII ................... NO
    Snowmelt ............... NO
    Groundwater ............ NO
    Flow Routing ........... YES
    Ponding Allowed ........ NO
    Water Quality .......... NO
  Infiltration Method ...... HORTON
  Flow Routing Method ...... DYNWAVE
  Surcharge Method ......... EXTRAN
  Starting Date ............ 08/28/2015 08:00:00
  Ending Date .............. 08/28/2015 16:00:00
  Antecedent Dry Days ...... 8.0
  Report Time Step ......... 00:01:00
  Wet Time Step ............ 00:01:00
  Dry Time Step ............ 00:01:00
  Routing Time Step ........ 30.00 sec
  Variable Time Step ....... YES
  Maximum Trials ........... 8
  Number of Threads ........ 4
  Head Tolerance ........... 0.001500 m
  
  
  **************************        Volume         Depth
  Runoff Quantity Continuity     hectare-m            mm
  **************************     ---------       -------
  Total Precipitation ......         1.505        45.382
  Evaporation Loss .........         0.000         0.000
  Infiltration Loss ........         0.092         2.788
  Surface Runoff ...........         1.380        41.615
  Final Storage ............         0.033         0.992
  Continuity Error (%) .....        -0.030
  
  
  **************************        Volume        Volume
  Flow Routing Continuity        hectare-m      10^6 ltr
  **************************     ---------     ---------
  Dry Weather Inflow .......         0.025         0.251
  Wet Weather Inflow .......         1.379        13.794
  Groundwater Inflow .......         0.000         0.000
  RDII Inflow ..............         0.000         0.000
  External Inflow ..........         0.083         0.834
  External Outflow .........         1.310        13.104
  Flooding Loss ............         0.241         2.405
  Evaporation Loss .........         0.000         0.000
  Exfiltration Loss ........         0.000         0.000
  Initial Stored Volume ....         0.243         2.431
  Final Stored Volume ......         0.188         1.878
  Continuity Error (%) .....        -0.450
  
  
  *************************
  Highest Continuity Errors
  *************************
  Node YS02001583 (-18.42%)
  Node YS02001884 (4.86%)
  Node YS02001774 (1.18%)
  
  
  ***************************
  Time-Step Critical Elements
  ***************************
  Link WS02006252WS02006251 (56.91%)
  Link WS02004404WS02004405 (14.10%)
  Link WS02006238WS02006235 (9.47%)
  Link WS02006235WS02006234 (6.36%)
  Link YS02001791YS02001793 (3.26%)
  
  
  ********************************
  Highest Flow Instability Indexes
  ********************************
  Link WS02006113WS02006111 (53)
  Link WS02006111WS02006112 (25)
  Link WS02004404WS02004405 (19)
  Link WS02004403WS02004404 (17)
  Link WS02004405WS02004406 (15)
  
  
  *********************************
  Most Frequent Nonconverging Nodes
  *********************************
  Node CC-1 (8.58%)
  Node CC-2 (8.58%)
  Node JK-1 (8.58%)
  Node JK-2 (8.58%)
  Node WSC (8.58%)
  
  
  *************************
  Routing Time Step Summary
  *************************
  Minimum Time Step           :     0.01 sec
  Average Time Step           :     1.75 sec
  Maximum Time Step           :     6.43 sec
  % of Time in Steady State   :     0.00
  Average Iterations per Step :     2.79
  % of Steps Not Converging   :     8.58
  Time Step Frequencies       :
     30.000 - 13.228 sec      :     0.00 %
     13.228 -  5.833 sec      :     7.94 %
      5.833 -  2.572 sec      :    13.43 %
      2.572 -  1.134 sec      :    17.70 %
      1.134 -  0.500 sec      :    60.92 %
  
  
  ***************************
  Subcatchment Runoff Summary
  ***************************
  
  ------------------------------------------------------------------------------------------------------------------------------
                            Total      Total      Total      Total     Imperv       Perv      Total       Total     Peak  Runoff
                           Precip      Runon       Evap      Infil     Runoff     Runoff     Runoff      Runoff   Runoff   Coeff
  Subcatchment                 mm         mm         mm         mm         mm         mm         mm    10^6 ltr      LPS
  ------------------------------------------------------------------------------------------------------------------------------
  sub60                     45.38       0.00       0.00       1.72      38.73       3.73      42.46        0.56   363.55   0.936
  sub61                     45.38       0.00       0.00       2.48      36.54       5.24      41.77        0.77   497.94   0.920
  sub62                     45.38       0.00       0.00       1.15      40.47       2.49      42.95        1.18   694.96   0.946
  sub63                     45.38       0.00       0.00       4.53      31.25       8.64      39.89        0.91   531.64   0.879
  sub64                     45.38       0.00       0.00       2.30      37.37       4.51      41.88        1.01   544.40   0.923
  sub65                     45.38       0.00       0.00       1.99      38.23       3.91      42.15        1.16   603.16   0.929
  sub66                     45.38       0.00       0.00       5.51      31.15       7.65      38.80        1.81   744.04   0.855
  sub67                     45.38       0.00       0.00       1.11      40.51       2.52      43.03        0.80   566.97   0.948
  sub68                     45.38       0.00       0.00       2.05      37.84       4.30      42.15        1.16   711.18   0.929
  sub69                     45.38       0.00       0.00       1.78      38.47       5.03      43.50        1.61   821.73   0.958
  sub70                     45.38       0.00       0.00       5.81      29.79       9.62      39.41        1.14   424.01   0.868
  sub71                     45.38       0.00       0.00       1.17      40.43       2.46      42.89        1.12   592.47   0.945
  sub72                     45.38       0.00       0.00       1.04      40.81       2.14      42.95        0.59   278.07   0.946
  
  
  ******************
  Node Depth Summary
  ******************
  
  ---------------------------------------------------------------------------------
                                 Average  Maximum  Maximum  Time of Max    Reported
                                   Depth    Depth      HGL   Occurrence   Max Depth
  Node                 Type       Meters   Meters   Meters  days hr:min      Meters
  ---------------------------------------------------------------------------------
  WS02003060           JUNCTION     0.25     0.38     5.31     0  02:13        0.38
  WS02003066           JUNCTION     0.20     0.30     5.85     0  02:13        0.30
  WS02003067           JUNCTION     0.52     0.70     6.02     0  02:12        0.70
  WS02003069           JUNCTION     0.28     0.43     5.01     0  02:14        0.43
  WS02003072           JUNCTION     0.34     0.50     4.87     0  02:14        0.50
  WS02003073           JUNCTION     0.19     0.30     4.36     0  02:15        0.30
  WS02004401           JUNCTION     0.62     0.87     6.87     0  02:10        0.87
  WS02004402           JUNCTION     0.65     0.90     6.86     0  02:10        0.90
  WS02004403           JUNCTION     0.67     0.92     6.85     0  02:10        0.91
  WS02004404           JUNCTION     0.75     1.03     6.88     0  02:10        0.99
  WS02004405           JUNCTION     0.73     0.97     6.82     0  02:10        0.96
  WS02004406           JUNCTION     0.74     0.96     6.79     0  02:11        0.96
  WS02004407           JUNCTION     0.19     0.30     6.61     0  02:11        0.30
  WS02004409           JUNCTION     0.41     0.67     6.44     0  02:11        0.67
  WS02004410           JUNCTION     0.44     0.68     6.40     0  02:11        0.68
  WS02004411           JUNCTION     0.46     0.69     6.37     0  02:12        0.69
  WS02004412           JUNCTION     0.48     0.70     6.34     0  02:12        0.70
  WS02004413           JUNCTION     0.64     0.86     6.33     0  02:12        0.86
  WS02006109           JUNCTION     0.67     1.17     7.79     0  02:16        1.13
  WS02006110           JUNCTION     0.67     1.25     7.84     0  02:16        1.15
  WS02006111           JUNCTION     0.19     0.29     6.99     0  02:18        0.29
  WS02006112           JUNCTION     0.77     1.09     6.97     0  02:10        1.06
  WS02006113           JUNCTION     0.29     0.46     7.35     0  02:53        0.46
  WS02006115           JUNCTION     0.50     0.77     6.91     0  02:10        0.77
  WS02006116           JUNCTION     0.59     0.85     6.89     0  02:10        0.85
  WS02006228           JUNCTION     0.66     1.38     8.03     0  02:15        1.11
  WS02006229           JUNCTION     0.64     1.44     8.13     0  02:15        1.08
  WS02006230           JUNCTION     0.63     1.72     8.47     0  02:15        1.17
  WS02006231           JUNCTION     0.44     1.40     8.53     0  02:15        0.93
  WS02006232           JUNCTION     0.58     1.47     8.51     0  02:15        1.14
  WS02006234           JUNCTION     0.50     1.48     8.64     0  02:00        1.17
  WS02006235           JUNCTION     0.53     1.74     8.90     0  02:00        1.26
  WS02006238           JUNCTION     0.56     1.80     8.94     0  02:00        1.29
  WS02006239           JUNCTION     0.53     1.79     9.00     0  02:00        1.28
  WS02006240           JUNCTION     0.50     1.69     8.98     0  02:00        1.24
  WS02006242           JUNCTION     0.57     1.55     8.82     0  02:00        1.30
  WS02006243           JUNCTION     0.47     1.41     8.83     0  02:00        1.19
  WS02006245           JUNCTION     0.47     1.33     8.82     0  02:00        1.16
  WS02006247           JUNCTION     0.49     1.28     8.78     0  02:00        1.18
  WS02006248           JUNCTION     0.45     1.10     8.69     0  01:46        1.10
  WS02006249           JUNCTION     0.48     1.09     8.69     0  01:47        1.09
  WS02006251           JUNCTION     0.47     1.48     9.15     0  02:15        1.13
  WS02006252           JUNCTION     0.36     1.50     9.74     0  00:00        0.68
  WS02006256           JUNCTION     0.94     2.35     9.28     0  00:00        2.35
  WSF200               JUNCTION     0.18     0.29     5.52     0  02:13        0.29
  YS02001580           JUNCTION     0.07     1.05     9.59     0  01:37        0.79
  YS02001583           JUNCTION     0.10     1.14     9.64     0  01:37        0.82
  YS02001586           JUNCTION     0.15     1.13     9.30     0  01:36        1.13
  YS02001590           JUNCTION     0.23     1.40     9.26     0  01:36        1.38
  YS02001593           JUNCTION     0.17     1.46     9.32     0  01:36        1.29
  YS02001596           JUNCTION     0.22     1.80     9.22     0  01:36        1.65
  YS02001600           JUNCTION     0.26     1.87     9.00     0  01:36        1.86
  YS02001601           JUNCTION     0.44     2.06     8.90     0  01:36        2.06
  YS02001602           JUNCTION     0.36     1.87     8.77     0  01:37        1.87
  YS02001605           JUNCTION     0.34     1.78     8.68     0  01:37        1.78
  YS02001607           JUNCTION     0.35     1.68     8.53     0  01:37        1.65
  YS02001610           JUNCTION     0.40     1.68     8.48     0  01:37        1.68
  YS02001613           JUNCTION     0.36     1.70     8.54     0  01:37        1.65
  YS02001616           JUNCTION     0.29     1.61     8.52     0  01:37        1.61
  YS02001619           JUNCTION     0.26     1.61     8.54     0  01:37        1.58
  YS02001622           JUNCTION     0.25     1.58     8.48     0  01:37        1.55
  YS02001625           JUNCTION     0.52     1.78     8.38     0  01:37        1.78
  YS02001629           JUNCTION     0.35     1.85     8.40     0  01:37        1.85
  YS02001633           JUNCTION     0.44     2.08     8.53     0  01:38        2.08
  YS02001641           JUNCTION     0.43     2.09     8.53     0  01:38        2.09
  YS02001644           JUNCTION     0.42     1.92     8.35     0  01:39        1.91
  YS02001647           JUNCTION     0.22     1.83     8.44     0  01:41        1.64
  YS02001649           JUNCTION     0.25     1.98     8.37     0  01:41        1.77
  YS02001652           JUNCTION     0.15     2.11     8.71     0  01:41        1.58
  YS02001655           JUNCTION     0.12     2.20     9.05     0  01:41        1.36
  YS02001658           JUNCTION     0.08     2.30     9.44     0  01:41        1.09
  YS02001661           JUNCTION     0.12     0.84     8.25     0  01:41        0.84
  YS02001664           JUNCTION     0.04     0.28     8.20     0  01:40        0.28
  YS02001745           JUNCTION     0.04     0.56     8.08     0  01:41        0.56
  YS02001748           JUNCTION     0.07     1.02     8.10     0  01:41        0.94
  YS02001751           JUNCTION     0.10     2.20     9.08     0  01:40        1.15
  YS02001754           JUNCTION     0.13     2.20     8.81     0  01:40        1.42
  YS02001757           JUNCTION     0.26     2.08     8.35     0  01:40        1.75
  YS02001759           JUNCTION     0.20     2.07     8.43     0  01:39        1.70
  YS02001762           JUNCTION     0.20     2.15     8.55     0  01:39        1.69
  YS02001765           JUNCTION     0.18     2.10     8.55     0  01:39        1.64
  YS02001767           JUNCTION     0.19     2.03     8.52     0  01:39        1.63
  YS02001770           JUNCTION     0.20     1.95     8.44     0  01:39        1.69
  YS02001774           JUNCTION     0.26     2.03     8.45     0  01:40        1.76
  YS02001779           JUNCTION     0.12     1.68     8.37     0  01:39        1.52
  YS02001783           JUNCTION     0.19     1.37     7.51     0  01:38        1.33
  YS02001784           JUNCTION     0.21     1.23     7.30     0  01:38        1.21
  YS02001786           JUNCTION     0.18     0.96     6.99     0  01:38        0.93
  YS02001788           JUNCTION     0.12     0.62     6.60     0  01:40        0.62
  YS02001790           JUNCTION     0.15     0.72     6.37     0  01:40        0.71
  YS02001791           JUNCTION     0.09     0.44     5.91     0  01:40        0.43
  YS02001793           JUNCTION     0.05     0.30     5.13     0  01:50        0.27
  YS02001882           JUNCTION     0.25     1.83     8.55     0  01:38        1.83
  YS02001884           JUNCTION     0.34     1.93     8.55     0  01:38        1.93
  YS02001887           JUNCTION     0.42     2.00     8.54     0  01:38        2.00
  YS02001890           JUNCTION     0.45     1.81     8.32     0  01:38        1.81
  YS02001895           JUNCTION     0.22     1.75     8.50     0  01:38        1.75
  YS02001898           JUNCTION     0.23     1.77     8.51     0  01:38        1.77
  YS02001901           JUNCTION     0.35     1.87     8.48     0  01:38        1.87
  YS02001904           JUNCTION     0.33     1.78     8.41     0  01:38        1.63
  YS02001907           JUNCTION     0.65     1.96     8.25     0  01:38        1.96
  YS02001910           JUNCTION     0.44     1.98     8.48     0  01:39        1.84
  YS02001915           JUNCTION     0.25     1.91     8.63     0  01:39        1.70
  YS02001918           JUNCTION     0.13     1.81     8.88     0  01:39        1.41
  YS02001920           JUNCTION     0.21     2.14     9.15     0  01:39        1.48
  YS02001923           JUNCTION     0.10     2.03     9.29     0  01:39        1.24
  YS02001926           JUNCTION     0.13     1.90     9.35     0  01:39        1.09
  YS02001929           JUNCTION     0.07     1.78     9.47     0  01:39        0.90
  YS02006553           JUNCTION     0.65     2.01     8.30     0  01:38        1.99
  YS02006556           JUNCTION     0.62     2.03     8.35     0  01:38        2.00
  YS02006558           JUNCTION     0.67     2.09     8.36     0  01:38        2.05
  YS02006561           JUNCTION     0.12     1.04     7.70     0  01:38        0.99
  YS02163301           JUNCTION     0.38     1.99     8.51     0  01:51        1.99
  YS02163601           JUNCTION     0.48     2.08     8.48     0  01:38        2.08
  YS02164001           JUNCTION     0.41     2.10     8.56     0  01:38        2.10
  CC-1                 OUTFALL      0.00     0.00     0.00     0  00:00        0.00
  CC-2                 OUTFALL      0.00     0.00     0.00     0  00:00        0.00
  JK-1                 OUTFALL      0.00     0.00     0.00     0  00:00        0.00
  JK-2                 OUTFALL      0.00     0.00     0.00     0  00:00        0.00
  WSC                  OUTFALL      0.19     0.30     0.97     0  02:15        0.30
  CC-storage           STORAGE      0.80     1.44     6.94     0  02:07        1.44
  JK-storage           STORAGE      2.96     4.23     5.03     0  01:50        4.17
  
  
  *******************
  Node Inflow Summary
  *******************
  
  -------------------------------------------------------------------------------------------------
                                  Maximum  Maximum                  Lateral       Total        Flow
                                  Lateral    Total  Time of Max      Inflow      Inflow     Balance
                                   Inflow   Inflow   Occurrence      Volume      Volume       Error
  Node                 Type           LPS      LPS  days hr:min    10^6 ltr    10^6 ltr     Percent
  -------------------------------------------------------------------------------------------------
  WS02003060           JUNCTION     16.53   551.63     0  02:13       0.476        5.96       0.032
  WS02003066           JUNCTION      0.00   534.77     0  02:13           0        5.48       0.023
  WS02003067           JUNCTION      0.00   534.61     0  02:12           0        5.49       0.073
  WS02003069           JUNCTION      0.32   551.83     0  02:13     0.00922        5.97       0.058
  WS02003072           JUNCTION      0.00   551.03     0  02:14           0        5.96       0.107
  WS02003073           JUNCTION      1.82   552.19     0  02:14      0.0524        6.01       0.083
  WS02004401           JUNCTION      0.00   537.54     0  02:10           0        5.58       0.177
  WS02004402           JUNCTION      0.00   537.69     0  02:09           0        5.57       0.181
  WS02004403           JUNCTION      0.00   540.08     0  02:11           0        5.56       0.174
  WS02004404           JUNCTION      0.16   551.96     0  01:56     0.00467        5.56       0.210
  WS02004405           JUNCTION      0.04   602.02     0  01:56      0.0011        5.55       0.137
  WS02004406           JUNCTION      0.00   541.90     0  02:10           0        5.54       0.366
  WS02004407           JUNCTION      0.00   538.23     0  02:11           0        5.52       0.015
  WS02004409           JUNCTION      0.00   537.68     0  02:11           0        5.52       0.040
  WS02004410           JUNCTION      0.00   536.74     0  02:11           0        5.52       0.071
  WS02004411           JUNCTION      0.00   535.99     0  02:12           0        5.51       0.093
  WS02004412           JUNCTION      0.00   535.51     0  02:12           0        5.51       0.127
  WS02004413           JUNCTION      0.00   535.21     0  02:12           0         5.5       0.230
  WS02006109           JUNCTION      1.23   563.33     0  02:16      0.0354        5.63       0.133
  WS02006110           JUNCTION      0.00   562.41     0  02:16           0        5.62       0.114
  WS02006111           JUNCTION      0.00   560.69     0  02:02           0        5.61       0.011
  WS02006112           JUNCTION      0.00   544.13     0  02:18           0        5.61       0.326
  WS02006113           JUNCTION      0.00   566.42     0  02:16           0        5.61       0.028
  WS02006115           JUNCTION      0.00   550.60     0  02:17           0        5.59       0.114
  WS02006116           JUNCTION      0.00   539.74     0  02:06           0        5.59       0.035
  WS02006228           JUNCTION      0.00   561.19     0  02:16           0        5.59       0.047
  WS02006229           JUNCTION      0.00   561.06     0  02:16           0         5.6       0.076
  WS02006230           JUNCTION     10.28   590.98     0  02:15       0.296         5.6       0.043
  WS02006231           JUNCTION      0.00   575.16     0  02:40           0        5.31       0.030
  WS02006232           JUNCTION      0.00   574.23     0  02:40           0        5.31       0.087
  WS02006234           JUNCTION      0.00   569.00     0  02:40           0         5.3      -0.104
  WS02006235           JUNCTION      0.00   575.69     0  01:38           0        5.34       0.114
  WS02006238           JUNCTION      0.00   426.93     0  02:10           0        4.53      -0.125
  WS02006239           JUNCTION      0.00   424.83     0  02:10           0         4.5      -0.162
  WS02006240           JUNCTION      0.00   420.61     0  02:10           0        4.48      -0.045
  WS02006242           JUNCTION      0.00   420.78     0  02:42           0        4.47      -0.058
  WS02006243           JUNCTION      0.00   421.38     0  02:10           0        4.46      -0.150
  WS02006245           JUNCTION      0.00   421.89     0  02:10           0        4.47       0.246
  WS02006247           JUNCTION      0.00   422.20     0  02:10           0        4.47       0.009
  WS02006248           JUNCTION      0.00   422.39     0  02:10           0        4.47       0.040
  WS02006249           JUNCTION      0.00   473.78     0  01:35           0        4.65       0.216
  WS02006251           JUNCTION      0.08   408.79     0  01:47     0.00222        4.65       0.028
  WS02006252           JUNCTION      0.00   400.00     0  00:00           0        4.64      -0.143
  WS02006256           JUNCTION      0.00   300.00     0  00:00           0        1.19      -0.753
  WSF200               JUNCTION      0.00   534.88     0  02:13           0        5.48       0.005
  YS02001580           JUNCTION      0.00   260.28     0  01:37           0     0.00452      -4.911
  YS02001583           JUNCTION      0.00   282.27     0  01:37           0      0.0141     -15.552
  YS02001586           JUNCTION    424.01   424.08     0  01:43        1.14        1.15       0.158
  YS02001590           JUNCTION      0.00   318.31     0  01:51           0        1.06      -0.061
  YS02001593           JUNCTION      0.00   318.07     0  01:54           0        1.06       0.010
  YS02001596           JUNCTION      0.00   317.94     0  01:50           0        1.06      -0.005
  YS02001600           JUNCTION      0.00   318.08     0  01:50           0        1.06       0.006
  YS02001601           JUNCTION    821.73  1139.19     0  01:41        1.61        2.67       0.038
  YS02001602           JUNCTION      0.00   595.42     0  01:37           0        1.92       0.022
  YS02001605           JUNCTION      0.00   595.65     0  01:37           0        1.85       0.025
  YS02001607           JUNCTION      0.00   595.10     0  01:37           0        1.85       0.060
  YS02001610           JUNCTION      0.00   564.12     0  01:37           0        1.84       0.110
  YS02001613           JUNCTION      0.00   531.89     0  01:37           0        1.63       0.075
  YS02001616           JUNCTION      0.00   489.02     0  01:37           0        1.63       0.005
  YS02001619           JUNCTION    744.04   928.17     0  01:37        1.81        3.44      -0.017
  YS02001622           JUNCTION      0.00   850.01     0  01:37           0        3.44      -0.001
  YS02001625           JUNCTION      0.00   837.81     0  02:00           0        3.44       0.264
  YS02001629           JUNCTION      0.00   837.90     0  02:00           0        3.11       0.006
  YS02001633           JUNCTION    603.36  1348.13     0  01:38        1.17        4.28       0.078
  YS02001641           JUNCTION      0.00  1344.75     0  01:38           0        4.28       0.061
  YS02001644           JUNCTION    544.44  1847.67     0  01:38        1.01        5.28       0.055
  YS02001647           JUNCTION      0.00  1847.76     0  01:38           0        5.27       0.005
  YS02001649           JUNCTION      0.00  2181.90     0  01:39           0        6.18       0.004
  YS02001652           JUNCTION      0.00   628.37     0  01:42           0       0.909      -0.261
  YS02001655           JUNCTION      0.15   776.37     0  01:39     0.00443       0.909      -0.014
  YS02001658           JUNCTION      0.00   659.34     0  01:48           0       0.904      -0.028
  YS02001661           JUNCTION      0.00   535.18     0  01:40           0       0.905       0.055
  YS02001664           JUNCTION    531.64   531.64     0  01:40       0.905       0.905      -0.012
  YS02001745           JUNCTION    363.56   363.56     0  01:39       0.557       0.557       0.281
  YS02001748           JUNCTION      0.04   604.48     0  01:40      0.0013        0.56      -0.344
  YS02001751           JUNCTION      0.01   512.87     0  01:43    0.000317       0.568       0.205
  YS02001754           JUNCTION      0.26   444.36     0  01:41     0.00749       0.577      -0.409
  YS02001757           JUNCTION      0.00  3333.17     0  01:42           0        8.71       0.065
  YS02001759           JUNCTION    497.98  1234.96     0  01:40       0.767        1.96      -0.020
  YS02001762           JUNCTION      0.00   735.88     0  01:40           0        1.19      -0.023
  YS02001765           JUNCTION      0.00   730.64     0  01:40           0        1.19      -0.004
  YS02001767           JUNCTION      0.54   725.88     0  01:40      0.0154        1.19      -0.005
  YS02001770           JUNCTION    695.11   722.81     0  01:40        1.18        1.22      -0.018
  YS02001774           JUNCTION      0.00   363.24     0  01:39           0      0.0655       1.193
  YS02001779           JUNCTION      0.01   363.21     0  01:39    0.000144      0.0225      -4.610
  YS02001783           JUNCTION      0.00  1152.88     0  01:40           0         3.3       0.009
  YS02001784           JUNCTION      1.06  1154.11     0  01:40      0.0305        3.33       0.015
  YS02001786           JUNCTION      0.06  1154.02     0  01:40     0.00162        3.33       0.020
  YS02001788           JUNCTION      0.07  1156.17     0  01:39     0.00204        3.33       0.009
  YS02001790           JUNCTION      0.15  1163.96     0  01:40     0.00446        3.33       0.025
  YS02001791           JUNCTION      0.00  1283.79     0  01:40           0        3.33      -0.017
  YS02001793           JUNCTION      0.00  1227.03     0  01:46           0        3.33       0.009
  YS02001882           JUNCTION      0.00    77.13     0  01:37           0      0.0121       3.611
  YS02001884           JUNCTION      0.00   125.93     0  01:37           0      0.0476       5.110
  YS02001887           JUNCTION    567.42   583.23     0  01:38       0.812       0.845       0.503
  YS02001890           JUNCTION      0.00   591.84     0  01:38           0       0.805       0.623
  YS02001895           JUNCTION      0.00   599.04     0  01:38           0       0.795       0.160
  YS02001898           JUNCTION      0.00   604.70     0  01:38           0       0.794      -0.033
  YS02001901           JUNCTION      0.00   611.80     0  01:38           0       0.797       0.390
  YS02001904           JUNCTION      0.00   614.92     0  01:38           0       0.811       0.330
  YS02001907           JUNCTION      0.00  1559.86     0  01:40           0         2.6       0.688
  YS02001910           JUNCTION      0.00  1035.83     0  01:40           0         1.8       0.398
  YS02001915           JUNCTION    592.49  1035.75     0  01:40        1.12        1.86       0.076
  YS02001918           JUNCTION      0.00   722.88     0  01:38           0       0.768       0.014
  YS02001920           JUNCTION      2.87   675.80     0  01:38      0.0827       0.737       0.065
  YS02001923           JUNCTION      0.04   753.16     0  01:38     0.00109       0.635      -0.161
  YS02001926           JUNCTION      0.05  1093.65     0  01:39      0.0015       0.614      -0.185
  YS02001929           JUNCTION    278.07   967.18     0  01:39        0.59       0.596      -0.295
  YS02006553           JUNCTION      0.00   789.89     0  01:54           0        2.17       0.542
  YS02006556           JUNCTION      0.00   789.17     0  01:54           0        2.18       0.361
  YS02006558           JUNCTION    712.06  1172.06     0  01:38        1.18        3.33       0.098
  YS02006561           JUNCTION      0.00  1169.06     0  01:38           0         3.3       0.001
  YS02163301           JUNCTION      0.00   844.99     0  02:05           0        3.12       0.038
  YS02163601           JUNCTION      0.11  1347.37     0  01:38     0.00317        4.27       0.112
  YS02164001           JUNCTION      0.00  1346.20     0  01:38           0        4.27       0.046
  CC-1                 OUTFALL       0.00   683.00     0  00:00           0        2.62       0.000
  CC-2                 OUTFALL       0.00   683.00     0  00:00           0        2.28       0.000
  JK-1                 OUTFALL       0.00  1000.00     0  00:00           0        1.46       0.000
  JK-2                 OUTFALL       0.00  1000.00     0  00:00           0       0.747       0.000
  WSC                  OUTFALL       0.00   551.39     0  02:15           0           6       0.000
  CC-storage           STORAGE       0.00  3333.68     0  01:42           0        10.9      -0.279
  JK-storage           STORAGE       0.00  1223.10     0  01:40           0        3.48      -0.253
  
  
  **********************
  Node Surcharge Summary
  **********************
  
  Surcharging occurs when water rises above the top of the highest conduit.
  ---------------------------------------------------------------------
                                               Max. Height   Min. Depth
                                   Hours       Above Crown    Below Rim
  Node                 Type      Surcharged         Meters       Meters
  ---------------------------------------------------------------------
  WS02004404           JUNCTION        0.01          0.029        2.751
  WS02006109           JUNCTION        1.96          0.351        1.469
  WS02006110           JUNCTION        0.57          0.345        1.505
  WS02006112           JUNCTION        0.70          0.086        1.594
  WS02006228           JUNCTION        1.95          0.554        1.646
  WS02006229           JUNCTION        1.97          0.640        1.810
  WS02006230           JUNCTION        0.57          0.643        0.927
  WS02006231           JUNCTION        0.68          0.693        0.837
  WS02006232           JUNCTION        2.03          0.771        0.709
  WS02006234           JUNCTION        1.08          0.761        0.479
  WS02006235           JUNCTION        1.97          1.028        0.262
  WS02006238           JUNCTION        2.01          1.080        0.350
  WS02006239           JUNCTION        1.97          1.047        0.243
  WS02006240           JUNCTION        1.96          0.978        0.412
  WS02006242           JUNCTION        2.00          0.820        0.000
  WS02006243           JUNCTION        1.86          0.698        0.072
  WS02006245           JUNCTION        1.85          0.621        0.229
  WS02006247           JUNCTION        1.85          0.566        0.194
  WS02006248           JUNCTION        1.84          0.380        0.000
  WS02006249           JUNCTION        1.84          0.390        0.000
  WS02006251           JUNCTION        0.72          0.448        0.732
  WS02006252           JUNCTION        2.34          1.100        0.000
  WS02006256           JUNCTION        5.90          2.050        0.000
  YS02001580           JUNCTION        0.41          0.450        0.000
  YS02001583           JUNCTION        0.42          0.500        0.000
  YS02001586           JUNCTION        0.56          0.510        0.000
  YS02001590           JUNCTION        0.63          0.750        0.000
  YS02001593           JUNCTION        0.63          0.840        0.000
  YS02001596           JUNCTION        0.72          1.070        0.000
  YS02001600           JUNCTION        0.83          1.190        0.000
  YS02001601           JUNCTION        1.19          1.440        0.000
  YS02001602           JUNCTION        1.06          1.270        0.000
  YS02001605           JUNCTION        1.01          1.180        0.000
  YS02001607           JUNCTION        0.59          0.680        0.000
  YS02001610           JUNCTION        0.61          0.680        0.000
  YS02001613           JUNCTION        0.58          0.700        0.000
  YS02001616           JUNCTION        0.54          0.610        0.000
  YS02001619           JUNCTION        0.53          0.610        0.000
  YS02001622           JUNCTION        0.53          0.578        0.042
  YS02001625           JUNCTION        0.68          0.780        0.000
  YS02001629           JUNCTION        0.48          0.470        0.000
  YS02001633           JUNCTION        0.69          1.060        0.000
  YS02001641           JUNCTION        0.64          1.092        0.008
  YS02001644           JUNCTION        0.60          0.920        0.000
  YS02001647           JUNCTION        0.42          0.833        0.067
  YS02001649           JUNCTION        0.52          0.976        0.074
  YS02001652           JUNCTION        0.34          1.080        0.050
  YS02001655           JUNCTION        0.15          1.200        0.000
  YS02001658           JUNCTION        0.02          1.300        0.000
  YS02001751           JUNCTION        0.04          1.200        0.000
  YS02001754           JUNCTION        0.21          1.150        0.000
  YS02001757           JUNCTION        0.58          1.085        0.125
  YS02001759           JUNCTION        0.48          1.066        0.144
  YS02001762           JUNCTION        0.44          1.150        0.000
  YS02001765           JUNCTION        0.40          1.100        0.000
  YS02001767           JUNCTION        0.37          1.030        0.000
  YS02001770           JUNCTION        0.35          0.920        0.000
  YS02001774           JUNCTION        0.43          1.030        0.020
  YS02001779           JUNCTION        0.21          0.680        0.000
  YS02001783           JUNCTION        0.42          0.569        1.031
  YS02001784           JUNCTION        0.40          0.429        1.061
  YS02001786           JUNCTION        0.30          0.158        1.272
  YS02001882           JUNCTION        0.37          0.830        0.000
  YS02001884           JUNCTION        0.38          0.870        0.000
  YS02001887           JUNCTION        0.41          0.950        0.000
  YS02001890           JUNCTION        0.42          0.760        0.000
  YS02001895           JUNCTION        0.36          0.750        0.000
  YS02001898           JUNCTION        0.35          0.740        0.000
  YS02001901           JUNCTION        0.40          0.870        0.000
  YS02001904           JUNCTION        0.39          0.779        0.071
  YS02001907           JUNCTION        0.57          0.950        0.000
  YS02001910           JUNCTION        0.44          0.975        0.125
  YS02001915           JUNCTION        0.37          0.914        0.086
  YS02001918           JUNCTION        0.29          0.810        0.000
  YS02001920           JUNCTION        0.30          1.140        0.000
  YS02001923           JUNCTION        0.01          0.820        0.000
  YS02001926           JUNCTION        0.01          0.900        0.000
  YS02001929           JUNCTION        0.01          0.780        0.000
  YS02006553           JUNCTION        0.59          1.014        0.176
  YS02006556           JUNCTION        0.51          0.994        0.356
  YS02006558           JUNCTION        0.50          0.989        0.411
  YS02006561           JUNCTION        0.25          0.243        0.907
  YS02163301           JUNCTION        0.68          0.993        0.037
  YS02163601           JUNCTION        0.72          1.080        0.000
  YS02164001           JUNCTION        0.64          1.100        0.000
  
  
  *********************
  Node Flooding Summary
  *********************
  
  Flooding refers to all water that overflows a node, whether it ponds or not.
  --------------------------------------------------------------------------
                                                             Total   Maximum
                                 Maximum   Time of Max       Flood    Ponded
                        Hours       Rate    Occurrence      Volume     Depth
  Node                 Flooded       LPS   days hr:min    10^6 ltr    Meters
  --------------------------------------------------------------------------
  WS02006242              0.01     12.25      0  02:00       0.000     0.000
  WS02006248              0.01     37.29      0  01:46       0.000     0.000
  WS02006249              0.70    109.21      0  01:47       0.170     0.000
  WS02006252              0.01    245.63      0  00:00       0.000     0.000
  WS02006256              1.10    293.19      0  00:00       0.363     0.000
  YS02001580              0.01    199.25      0  01:37       0.001     0.000
  YS02001583              0.01    182.52      0  01:37       0.001     0.000
  YS02001586              0.30    173.83      0  01:37       0.075     0.000
  YS02001590              0.01    154.56      0  01:36       0.000     0.000
  YS02001593              0.01     60.54      0  01:36       0.000     0.000
  YS02001596              0.01     26.49      0  01:36       0.000     0.000
  YS02001600              0.01     22.60      0  01:36       0.000     0.000
  YS02001601              0.50    741.38      0  01:41       0.749     0.000
  YS02001602              0.38     61.95      0  01:46       0.076     0.000
  YS02001605              0.01     14.85      0  01:37       0.000     0.000
  YS02001607              0.01    186.44      0  01:37       0.001     0.000
  YS02001610              0.33    257.52      0  01:44       0.210     0.000
  YS02001613              0.01    179.99      0  01:37       0.001     0.000
  YS02001616              0.01     80.22      0  01:37       0.001     0.000
  YS02001619              0.01     90.79      0  01:37       0.000     0.000
  YS02001625              0.29    711.83      0  01:42       0.318     0.000
  YS02001629              0.03    104.71      0  01:37       0.001     0.000
  YS02001633              0.01      7.53      0  01:38       0.000     0.000
  YS02001644              0.01     33.81      0  01:41       0.000     0.000
  YS02001655              0.01     27.91      0  01:41       0.000     0.000
  YS02001658              0.01    143.50      0  01:41       0.000     0.000
  YS02001751              0.01    361.59      0  01:40       0.000     0.000
  YS02001754              0.01     70.71      0  01:40       0.000     0.000
  YS02001762              0.01     61.74      0  01:39       0.000     0.000
  YS02001765              0.01     51.13      0  01:39       0.000     0.000
  YS02001767              0.01     40.10      0  01:39       0.000     0.000
  YS02001770              0.01     87.68      0  01:39       0.000     0.000
  YS02001779              0.01    360.83      0  01:39       0.005     0.000
  YS02001882              0.01     10.11      0  01:38       0.000     0.000
  YS02001884              0.01     10.50      0  01:38       0.000     0.000
  YS02001887              0.01     14.95      0  01:38       0.000     0.000
  YS02001890              0.04    224.97      0  01:38       0.005     0.000
  YS02001895              0.01     70.63      0  01:38       0.000     0.000
  YS02001898              0.01     88.50      0  01:38       0.000     0.000
  YS02001901              0.01     47.82      0  01:38       0.000     0.000
  YS02001907              0.23   1117.17      0  01:40       0.419     0.000
  YS02001918              0.01    164.75      0  01:39       0.002     0.000
  YS02001920              0.01     45.62      0  01:39       0.000     0.000
  YS02001923              0.01     94.50      0  01:39       0.000     0.000
  YS02001926              0.01    540.02      0  01:39       0.004     0.000
  YS02001929              0.01    738.88      0  01:39       0.002     0.000
  YS02163601              0.01     14.75      0  01:38       0.000     0.000
  YS02164001              0.01     23.40      0  01:38       0.000     0.000
  
  
  **********************
  Storage Volume Summary
  **********************
  
  ------------------------------------------------------------------------------------------------
                         Average    Avg   Evap  Exfil     Maximum    Max    Time of Max    Maximum
                          Volume   Pcnt   Pcnt   Pcnt      Volume   Pcnt     Occurrence    Outflow
  Storage Unit           1000 m³   Full   Loss   Loss     1000 m³   Full    days hr:min        LPS
  ------------------------------------------------------------------------------------------------
  CC-storage               2.237   34.9    0.0    0.0       4.004   62.5       0  02:07    1783.53
  JK-storage               0.148   51.0    0.0    0.0       0.213   73.0       0  01:50    2300.00
  
  
  ***********************
  Outfall Loading Summary
  ***********************
  
  -----------------------------------------------------------
                         Flow       Avg       Max       Total
                         Freq      Flow      Flow      Volume
  Outfall Node           Pcnt       LPS       LPS    10^6 ltr
  -----------------------------------------------------------
  CC-1                  15.59    683.00    683.00       2.619
  CC-2                  12.04    683.00    683.00       2.277
  JK-1                   5.26   1000.00   1000.00       1.457
  JK-2                   4.50   1000.00   1000.00       0.747
  WSC                   99.96    271.04    551.39       6.004
  -----------------------------------------------------------
  System                27.47   3637.04   3901.25      13.104
  
  
  ********************
  Link Flow Summary
  ********************
  
  -----------------------------------------------------------------------------
                                 Maximum  Time of Max   Maximum    Max/    Max/
                                  |Flow|   Occurrence   |Veloc|    Full    Full
  Link                 Type          LPS  days hr:min     m/sec    Flow   Depth
  -----------------------------------------------------------------------------
  1                    CONDUIT    551.39     0  02:15      2.82    0.19    0.30
  WS02003060WS02003069 CONDUIT    551.51     0  02:13      1.64    0.22    0.34
  WS02003066WSF200     CONDUIT    534.88     0  02:13      2.85    0.09    0.22
  WS02003067WS02003066 CONDUIT    534.77     0  02:13      1.20    0.17    0.42
  WS02003069WS02003072 CONDUIT    551.03     0  02:14      1.37    0.27    0.39
  WS02003072WS02003073 CONDUIT    550.37     0  02:14      1.43    1.19    0.37
  WS02004401WS02004402 CONDUIT    537.69     0  02:09      1.08    0.65    0.89
  WS02004402WS02004403 CONDUIT    540.08     0  02:11      1.09    0.78    0.91
  WS02004403WS02004404 CONDUIT    551.80     0  01:56      1.05    0.40    0.96
  WS02004404WS02004405 CONDUIT    601.98     0  01:56      1.24    5.90    0.98
  WS02004405WS02004406 CONDUIT    541.90     0  02:10      1.20    1.07    0.96
  WS02004406WS02004407 CONDUIT    538.23     0  02:11      1.04    0.24    0.63
  WS02004407WS02004409 CONDUIT    537.68     0  02:11      1.54    0.19    0.48
  WS02004409WS02004410 CONDUIT    536.74     0  02:11      1.00    0.69    0.67
  WS02004410WS02004411 CONDUIT    535.99     0  02:12      0.94    0.73    0.68
  WS02004411WS02004412 CONDUIT    535.51     0  02:12      0.92    0.76    0.69
  WS02004412WS02004413 CONDUIT    535.21     0  02:12      0.82    0.36    0.78
  WS02004413WS02003067 CONDUIT    534.61     0  02:12      1.11    0.23    0.59
  WS02006109WS02006110 CONDUIT    562.41     0  02:16      1.12    1.08    1.00
  WS02006110WS02006113 CONDUIT    566.42     0  02:16      1.37    0.52    0.79
  WS02006111WS02006112 CONDUIT    544.13     0  02:18      1.87    0.26    0.67
  WS02006112WS02006115 CONDUIT    550.60     0  02:17      0.80    0.32    0.88
  WS02006113WS02006111 CONDUIT    560.69     0  02:02      2.46    0.67    0.46
  WS02006115WS02006116 CONDUIT    539.74     0  02:06      1.09    0.69    0.78
  WS02006116WS02004401 CONDUIT    537.54     0  02:10      1.07    0.74    0.86
  WS02006228WS02006109 CONDUIT    562.10     0  02:16      1.12    2.46    1.00
  WS02006229WS02006228 CONDUIT    561.19     0  02:16      1.12    1.86    1.00
  WS02006230WS02006229 CONDUIT    561.06     0  02:16      1.46   12.49    1.00
  WS02006231WS02006230 CONDUIT    580.70     0  02:15      1.59    8.81    1.00
  WS02006232WS02006231 CONDUIT    575.16     0  02:40      1.50    1.21    1.00
  WS02006234WS02006232 CONDUIT    574.23     0  02:40      1.49    1.16    1.00
  WS02006235WS02006234 CONDUIT    569.00     0  02:40      1.59    6.00    1.00
  WS02006238WS02006235 CONDUIT    427.74     0  02:10      1.45    0.95    1.00
  WS02006239WS02006238 CONDUIT    426.93     0  02:10      1.11    1.37    1.00
  WS02006240WS02006239 CONDUIT    424.83     0  02:10      1.24    1.34    1.00
  WS02006242WS02006240 CONDUIT    420.61     0  02:10      1.13    1.67    1.00
  WS02006243WS02006242 CONDUIT    420.78     0  02:42      1.40    0.90    1.00
  WS02006245WS02006243 CONDUIT    421.38     0  02:10      1.45    1.25    1.00
  WS02006247WS02006245 CONDUIT    421.89     0  02:10      1.43    3.35    1.00
  WS02006248WS02006247 CONDUIT    422.20     0  02:10      1.44    0.92    1.00
  WS02006249WS02006248 CONDUIT    422.39     0  02:10      1.36    2.31    1.00
  WS02006251WS02006249 CONDUIT    473.78     0  01:35      1.99    1.37    1.00
  WS02006252WS02006251 CONDUIT    408.72     0  01:47     18.39    1.50    1.00
  WS02006256WS02006235 CONDUIT    288.91     0  00:00      4.23    3.06    1.00
  WSF200WS02003060     CONDUIT    535.10     0  02:13      2.06    0.12    0.28
  YS02001580YS02001583 CONDUIT    260.28     0  01:37      1.10    1.01    1.00
  YS02001583YS02001586 CONDUIT    264.71     0  01:36      1.16    0.40    1.00
  YS02001586YS02001590 CONDUIT    318.31     0  01:51      1.34    0.56    1.00
  YS02001590YS02001593 CONDUIT    318.07     0  01:54      1.12    2.00    1.00
  YS02001593YS02001596 CONDUIT    317.94     0  01:50      1.72    0.50    1.00
  YS02001596YS02001600 CONDUIT    318.08     0  01:50      1.19    0.62    1.00
  YS02001600YS02001601 CONDUIT    317.86     0  01:50      1.12    0.55    1.00
  YS02001601YS02001602 CONDUIT    595.42     0  01:37      2.11    2.15    1.00
  YS02001602YS02001605 CONDUIT    595.65     0  01:37      2.11   12.60    1.00
  YS02001605YS02001607 CONDUIT    595.10     0  01:37      2.10    3.26    1.00
  YS02001607YS02001610 CONDUIT    564.12     0  01:37      0.78    0.54    1.00
  YS02001610YS02001613 CONDUIT    531.89     0  01:37      0.73    0.61    1.00
  YS02001613YS02001616 CONDUIT    489.02     0  01:37      0.71    0.42    1.00
  YS02001616YS02001619 CONDUIT    483.77     0  02:06      0.67    0.84    1.00
  YS02001619YS02001622 CONDUIT    850.01     0  01:37      1.44    1.25    1.00
  YS02001622YS02001625 CONDUIT    837.81     0  02:00      1.07    0.45    1.00
  YS02001625YS02001629 CONDUIT    837.90     0  02:00      1.07    0.40    1.00
  YS02001629YS02163301 CONDUIT    844.99     0  02:05      1.08    1.04    1.00
  YS02001633YS02163601 CONDUIT   1347.26     0  01:38      1.72    1.41    1.00
  YS02001641YS02001644 CONDUIT   1341.75     0  01:38      1.71    4.34    1.00
  YS02001644YS02001647 CONDUIT   1847.76     0  01:38      2.35    1.09    1.00
  YS02001647YS02001649 CONDUIT   1859.39     0  01:38      2.37    0.98    1.00
  YS02001649YS02001757 CONDUIT   2180.95     0  01:39      2.78    1.32    1.00
  YS02001652YS02001649 CONDUIT    627.90     0  01:42      0.97    0.31    1.00
  YS02001655YS02001652 CONDUIT    628.37     0  01:42      1.78    0.31    1.00
  YS02001658YS02001655 CONDUIT    776.22     0  01:39      2.14    0.33    1.00
  YS02001661YS02001658 CONDUIT    659.34     0  01:48      2.44    0.26    0.89
  YS02001664YS02001661 CONDUIT    535.18     0  01:40      2.37    0.17    0.56
  YS02001745YS02001748 CONDUIT    561.76     0  01:42      2.33    0.22    0.68
  YS02001748YS02001751 CONDUIT    512.86     0  01:43      1.94    0.26    1.00
  YS02001751YS02001754 CONDUIT    444.10     0  01:41      1.80    0.21    1.00
  YS02001754YS02001757 CONDUIT    444.71     0  01:41      0.75    0.18    1.00
  YS02001757CaochengTiaoxuchi CONDUIT   3333.68     0  01:42      4.49    1.44    1.00
  YS02001759YS02001757 CONDUIT   1237.98     0  01:40      1.58    0.88    1.00
  YS02001762YS02001759 CONDUIT    740.47     0  01:40      0.94    0.85    1.00
  YS02001765YS02001762 CONDUIT    735.88     0  01:40      0.94    0.69    1.00
  YS02001767YS02001765 CONDUIT    730.64     0  01:40      0.93    0.92    1.00
  YS02001770YS02001767 CONDUIT    725.35     0  01:40      1.02    2.87    1.00
  YS02001774YS02001770 CONDUIT    363.24     0  01:39      0.46    0.23    1.00
  YS02001779YS02001774 CONDUIT    363.21     0  01:39      0.46    0.18    1.00
  YS02001783YS02001784 CONDUIT   1153.05     0  01:40      2.29    1.59    1.00
  YS02001784YS02001785 CONDUIT   1153.97     0  01:40      2.30    2.69    1.00
  YS02001786YS02001788 CONDUIT   1156.10     0  01:39      2.48    2.23    0.89
  YS02001788YS02001790 CONDUIT   1163.81     0  01:40      2.70    0.86    0.84
  YS02001790YS02001791 CONDUIT   1283.79     0  01:40      3.41    1.40    0.70
  YS02001791YS02001793 CONDUIT   1227.03     0  01:46      6.76    0.53    0.44
  YS02001793JiankangQianchi CONDUIT   1223.10     0  01:40      2.46    0.10    0.65
  YS02001882YS02001884 CONDUIT     77.13     0  01:37      0.14    0.09    1.00
  YS02001884YS02001887 CONDUIT    125.93     0  01:37      0.17    0.17    1.00
  YS02001887YS02001890 CONDUIT    591.84     0  01:38      0.75    1.01    1.00
  YS02001890YS02001895 CONDUIT    599.04     0  01:38      0.76    0.28    1.00
  YS02001895YS02001898 CONDUIT    604.70     0  01:38      0.77    1.05    1.00
  YS02001898YS02001901 CONDUIT    611.80     0  01:38      0.78    0.39    1.00
  YS02001901YS02001904 CONDUIT    614.92     0  01:38      0.78    0.95    1.00
  YS02001904YS02001907 CONDUIT    618.75     0  01:38      0.79    0.22    1.00
  YS02001907YS02006553 CONDUIT    789.89     0  01:54      0.88    0.93    1.00
  YS02001910YS02001907 CONDUIT   1035.94     0  01:40      1.32    0.58    1.00
  YS02001915YS02001910 CONDUIT   1035.83     0  01:40      1.32    0.51    1.00
  YS02001918YS02001915 CONDUIT    722.88     0  01:38      0.96    0.40    1.00
  YS02001920YS02001918 CONDUIT    672.93     0  01:38      0.86    0.65    1.00
  YS02001923YS02001920 CONDUIT    604.32     0  01:38      0.89    0.27    1.00
  YS02001926YS02001923 CONDUIT    856.25     0  01:39      1.33    1.22    1.00
  YS02001929YS02001926 CONDUIT    714.00     0  01:39      1.20    0.34    1.00
  YS02006553YS02006556 CONDUIT    789.17     0  01:54      1.00    0.68    1.00
  YS02006556YS02006558 CONDUIT    789.99     0  01:53      1.01    0.62    1.00
  YS02006558YS02006561 CONDUIT   1169.06     0  01:38      4.13    2.58    1.00
  YS02006561YS02001783 CONDUIT   1152.88     0  01:40      2.29    0.60    1.00
  YS02163301YS02001633 CONDUIT    845.26     0  02:05      1.08    0.79    1.00
  YS02163601YS02164001 CONDUIT   1346.20     0  01:38      1.71    1.19    1.00
  YS02164001YS02001641 CONDUIT   1344.75     0  01:38      1.71    1.84    1.00
  CC-R1                PUMP       683.00     0  00:00              1.00
  CC-R2                PUMP       683.00     0  00:00              1.00
  CC-S1                PUMP       200.00     0  00:00              1.00
  CC-S2                PUMP       200.00     0  00:00              1.00
  JK-R1                PUMP      1000.00     0  00:00              1.00
  JK-R2                PUMP      1000.00     0  00:00              1.00
  JK-S                 PUMP       300.00     0  00:00              1.00
  
  
  ***************************
  Flow Classification Summary
  ***************************
  
  -------------------------------------------------------------------------------------
                      Adjusted    ---------- Fraction of Time in Flow Class ---------- 
                       /Actual         Up    Down  Sub   Sup   Up    Down  Norm  Inlet 
  Conduit               Length    Dry  Dry   Dry   Crit  Crit  Crit  Crit  Ltd   Ctrl  
  -------------------------------------------------------------------------------------
  1                       1.00   0.00  0.00  0.00  0.00  1.00  0.00  0.00  0.49  0.00
  WS02003060WS02003069    1.00   0.00  0.00  0.00  0.98  0.02  0.00  0.00  0.65  0.00
  WS02003066WSF200        1.00   0.08  0.00  0.00  0.00  0.92  0.00  0.00  0.83  0.00
  WS02003067WS02003066    1.00   0.07  0.01  0.00  0.93  0.00  0.00  0.00  0.00  0.00
  WS02003069WS02003072    1.00   0.00  0.00  0.00  0.99  0.01  0.00  0.00  0.74  0.00
  WS02003072WS02003073    1.00   0.00  0.00  0.00  0.00  0.00  0.00  1.00  0.00  0.00
  WS02004401WS02004402    1.00   0.02  0.00  0.00  0.98  0.00  0.00  0.00  0.00  0.00
  WS02004402WS02004403    1.00   0.02  0.00  0.00  0.97  0.00  0.00  0.00  0.00  0.00
  WS02004403WS02004404    1.00   0.00  0.03  0.00  0.97  0.00  0.00  0.00  0.00  0.00
  WS02004404WS02004405    1.00   0.00  0.00  0.00  1.00  0.00  0.00  0.00  0.01  0.00
  WS02004405WS02004406    1.00   0.00  0.00  0.00  1.00  0.00  0.00  0.00  0.00  0.00
  WS02004406WS02004407    1.00   0.00  0.04  0.00  0.96  0.00  0.00  0.00  0.00  0.00
  WS02004407WS02004409    1.00   0.04  0.00  0.00  0.95  0.01  0.00  0.00  0.95  0.00
  WS02004409WS02004410    1.00   0.04  0.00  0.00  0.96  0.00  0.00  0.00  0.00  0.00
  WS02004410WS02004411    1.00   0.04  0.00  0.00  0.96  0.00  0.00  0.00  0.00  0.00
  WS02004411WS02004412    1.00   0.04  0.00  0.00  0.96  0.00  0.00  0.00  0.00  0.00
  WS02004412WS02004413    1.00   0.04  0.00  0.00  0.95  0.00  0.00  0.00  0.01  0.00
  WS02004413WS02003067    1.00   0.05  0.02  0.00  0.00  0.00  0.93  0.00  0.00  0.00
  WS02006109WS02006110    1.00   0.00  0.01  0.00  0.98  0.00  0.01  0.00  0.00  0.00
  WS02006110WS02006113    1.00   0.01  0.01  0.00  0.98  0.00  0.00  0.00  0.00  0.00
  WS02006111WS02006112    1.00   0.02  0.00  0.00  0.98  0.00  0.00  0.00  0.98  0.00
  WS02006112WS02006115    1.00   0.02  0.00  0.00  0.97  0.00  0.00  0.00  0.00  0.00
  WS02006113WS02006111    1.00   0.02  0.00  0.00  0.00  0.98  0.00  0.00  0.16  0.00
  WS02006115WS02006116    1.00   0.02  0.00  0.00  0.97  0.00  0.00  0.01  0.00  0.00
  WS02006116WS02004401    1.00   0.02  0.00  0.00  0.98  0.00  0.00  0.00  0.00  0.00
  WS02006228WS02006109    1.00   0.00  0.00  0.00  1.00  0.00  0.00  0.00  0.01  0.00
  WS02006229WS02006228    1.00   0.00  0.00  0.00  0.99  0.00  0.00  0.01  0.00  0.00
  WS02006230WS02006229    1.00   0.00  0.00  0.00  0.99  0.00  0.00  0.01  0.00  0.00
  WS02006231WS02006230    1.00   0.00  0.00  0.00  0.28  0.00  0.72  0.00  0.00  0.00
  WS02006232WS02006231    1.00   0.00  0.00  0.00  0.99  0.00  0.01  0.00  0.00  0.00
  WS02006234WS02006232    1.00   0.00  0.00  0.00  1.00  0.00  0.00  0.00  0.15  0.00
  WS02006235WS02006234    1.00   0.00  0.00  0.00  0.80  0.00  0.20  0.00  0.00  0.00
  WS02006238WS02006235    1.00   0.00  0.00  0.00  1.00  0.00  0.00  0.00  0.00  0.00
  WS02006239WS02006238    1.00   0.00  0.00  0.00  1.00  0.00  0.00  0.00  0.26  0.00
  WS02006240WS02006239    1.00   0.00  0.00  0.00  0.64  0.00  0.00  0.36  0.01  0.00
  WS02006242WS02006240    1.00   0.00  0.00  0.00  0.99  0.00  0.01  0.00  0.00  0.00
  WS02006243WS02006242    1.00   0.00  0.00  0.00  0.99  0.00  0.00  0.01  0.45  0.00
  WS02006245WS02006243    1.00   0.00  0.00  0.00  0.72  0.00  0.00  0.27  0.00  0.00
  WS02006247WS02006245    1.00   0.00  0.00  0.00  0.99  0.00  0.00  0.01  0.00  0.00
  WS02006248WS02006247    1.00   0.00  0.00  0.00  0.99  0.00  0.00  0.01  0.21  0.00
  WS02006249WS02006248    1.00   0.00  0.00  0.00  0.57  0.00  0.43  0.00  0.00  0.00
  WS02006251WS02006249    1.00   0.00  0.00  0.00  0.99  0.01  0.00  0.00  0.45  0.00
  WS02006252WS02006251    1.00   0.00  0.45  0.00  0.09  0.00  0.46  0.00  0.00  0.00
  WS02006256WS02006235    1.00   0.00  0.00  0.00  1.00  0.00  0.00  0.00  0.00  0.00
  WSF200WS02003060        1.00   0.00  0.08  0.00  0.35  0.58  0.00  0.00  0.45  0.00
  YS02001580YS02001583    1.00   0.20  0.63  0.00  0.17  0.00  0.00  0.00  0.72  0.00
  YS02001583YS02001586    1.00   0.45  0.32  0.00  0.23  0.00  0.00  0.00  0.72  0.00
  YS02001586YS02001590    1.00   0.13  0.00  0.00  0.38  0.04  0.00  0.45  0.34  0.00
  YS02001590YS02001593    1.00   0.13  0.01  0.00  0.09  0.00  0.77  0.00  0.00  0.00
  YS02001593YS02001596    1.00   0.14  0.00  0.00  0.10  0.01  0.00  0.75  0.02  0.00
  YS02001596YS02001600    1.00   0.14  0.00  0.00  0.17  0.02  0.00  0.67  0.06  0.00
  YS02001600YS02001601    1.00   0.13  0.01  0.00  0.86  0.00  0.00  0.00  0.63  0.00
  YS02001601YS02001602    1.00   0.13  0.01  0.00  0.86  0.00  0.00  0.00  0.00  0.00
  YS02001602YS02001605    1.00   0.14  0.00  0.00  0.86  0.00  0.00  0.00  0.00  0.00
  YS02001605YS02001607    1.00   0.14  0.00  0.00  0.86  0.00  0.00  0.00  0.00  0.00
  YS02001607YS02001610    1.00   0.13  0.01  0.00  0.86  0.00  0.00  0.00  0.02  0.00
  YS02001610YS02001613    1.00   0.13  0.00  0.00  0.87  0.00  0.00  0.00  0.01  0.00
  YS02001613YS02001616    1.00   0.13  0.00  0.00  0.87  0.00  0.00  0.00  0.01  0.00
  YS02001616YS02001619    1.00   0.13  0.00  0.00  0.87  0.00  0.00  0.00  0.00  0.00
  YS02001619YS02001622    1.00   0.13  0.00  0.00  0.87  0.00  0.00  0.00  0.31  0.00
  YS02001622YS02001625    1.00   0.13  0.00  0.00  0.87  0.00  0.00  0.00  0.05  0.00
  YS02001625YS02001629    1.00   0.13  0.05  0.00  0.13  0.00  0.69  0.00  0.00  0.00
  YS02001629YS02163301    1.00   0.16  0.01  0.00  0.83  0.00  0.00  0.00  0.00  0.00
  YS02001633YS02163601    1.00   0.00  0.01  0.00  0.99  0.00  0.00  0.00  0.15  0.00
  YS02001641YS02001644    1.00   0.00  0.01  0.00  0.99  0.00  0.00  0.00  0.00  0.00
  YS02001644YS02001647    1.00   0.00  0.18  0.00  0.82  0.00  0.00  0.00  0.00  0.00
  YS02001647YS02001649    1.00   0.00  0.18  0.00  0.51  0.31  0.00  0.00  0.58  0.00
  YS02001649YS02001757    1.00   0.00  0.00  0.00  0.80  0.20  0.00  0.00  0.48  0.00
  YS02001652YS02001649    1.00   0.00  0.00  0.00  0.96  0.04  0.00  0.00  0.75  0.00
  YS02001655YS02001652    1.00   0.00  0.00  0.00  0.14  0.02  0.00  0.84  0.06  0.00
  YS02001658YS02001655    1.00   0.00  0.15  0.00  0.64  0.22  0.00  0.00  0.73  0.00
  YS02001661YS02001658    1.00   0.15  0.00  0.00  0.48  0.38  0.00  0.00  0.76  0.00
  YS02001664YS02001661    1.00   0.13  0.00  0.00  0.77  0.11  0.00  0.00  0.86  0.00
  YS02001745YS02001748    1.00   0.00  0.00  0.00  0.06  0.01  0.00  0.93  0.06  0.00
  YS02001748YS02001751    1.00   0.00  0.00  0.00  0.81  0.19  0.00  0.00  0.80  0.00
  YS02001751YS02001754    1.00   0.00  0.00  0.00  0.12  0.00  0.00  0.88  0.02  0.00
  YS02001754YS02001757    1.00   0.00  0.00  0.00  1.00  0.00  0.00  0.00  0.87  0.00
  YS02001757CaochengTiaoxuchi    1.00   0.00  0.00  0.00  0.98  0.02  0.00  0.00  0.71  0.00
  YS02001759YS02001757    1.00   0.00  0.00  0.00  1.00  0.00  0.00  0.00  0.58  0.00
  YS02001762YS02001759    1.00   0.00  0.00  0.00  1.00  0.00  0.00  0.00  0.05  0.00
  YS02001765YS02001762    1.00   0.00  0.00  0.00  1.00  0.00  0.00  0.00  0.72  0.00
  YS02001767YS02001765    1.00   0.00  0.00  0.00  1.00  0.00  0.00  0.00  0.01  0.00
  YS02001770YS02001767    1.00   0.00  0.00  0.00  1.00  0.00  0.00  0.00  0.00  0.00
  YS02001774YS02001770    1.00   0.00  0.14  0.00  0.68  0.00  0.18  0.00  0.03  0.00
  YS02001779YS02001774    1.00   0.00  0.00  0.00  1.00  0.00  0.00  0.00  0.81  0.00
  YS02001783YS02001784    1.00   0.00  0.18  0.00  0.82  0.00  0.00  0.00  0.57  0.00
  YS02001784YS02001785    1.00   0.00  0.00  0.00  1.00  0.00  0.00  0.00  0.17  0.00
  YS02001786YS02001788    1.00   0.00  0.00  0.00  0.79  0.21  0.00  0.00  0.00  0.00
  YS02001788YS02001790    1.00   0.00  0.00  0.00  0.20  0.80  0.00  0.00  0.85  0.00
  YS02001790YS02001791    1.00   0.00  0.00  0.00  0.01  0.99  0.00  0.00  0.16  0.00
  YS02001791YS02001793    1.00   0.00  0.00  0.00  0.00  1.00  0.00  0.00  0.00  0.00
  YS02001793JiankangQianchi    1.00   0.00  0.00  0.00  0.98  0.02  0.00  0.00  0.98  0.00
  YS02001882YS02001884    1.00   0.16  0.01  0.00  0.83  0.00  0.00  0.00  0.00  0.00
  YS02001884YS02001887    1.00   0.06  0.05  0.00  0.89  0.00  0.00  0.00  0.00  0.00
  YS02001887YS02001890    1.00   0.00  0.00  0.00  0.97  0.00  0.03  0.00  0.00  0.00
  YS02001890YS02001895    1.00   0.00  0.17  0.00  0.83  0.00  0.00  0.00  0.00  0.00
  YS02001895YS02001898    1.00   0.17  0.00  0.00  0.82  0.00  0.01  0.00  0.00  0.00
  YS02001898YS02001901    1.00   0.17  0.00  0.00  0.83  0.00  0.00  0.00  0.01  0.00
  YS02001901YS02001904    1.00   0.17  0.00  0.00  0.83  0.00  0.00  0.00  0.00  0.00
  YS02001904YS02001907    1.00   0.00  0.17  0.00  0.83  0.00  0.00  0.00  0.00  0.00
  YS02001907YS02006553    1.00   0.00  0.02  0.00  0.98  0.00  0.00  0.00  0.00  0.00
  YS02001910YS02001907    1.00   0.00  0.00  0.00  0.97  0.00  0.00  0.03  0.12  0.00
  YS02001915YS02001910    1.00   0.00  0.00  0.00  0.96  0.04  0.00  0.00  0.16  0.00
  YS02001918YS02001915    1.00   0.00  0.01  0.00  0.98  0.02  0.00  0.00  0.77  0.00
  YS02001920YS02001918    1.00   0.00  0.01  0.00  0.99  0.00  0.00  0.00  0.00  0.00
  YS02001923YS02001920    1.00   0.00  0.00  0.00  1.00  0.00  0.00  0.00  0.94  0.00
  YS02001926YS02001923    1.00   0.00  0.07  0.00  0.05  0.00  0.88  0.00  0.00  0.00
  YS02001929YS02001926    1.00   0.00  0.13  0.00  0.87  0.00  0.00  0.00  0.83  0.00
  YS02006553YS02006556    1.00   0.01  0.00  0.00  0.99  0.00  0.00  0.00  0.03  0.00
  YS02006556YS02006558    1.00   0.00  0.00  0.00  1.00  0.00  0.00  0.00  0.00  0.00
  YS02006558YS02006561    1.00   0.18  0.00  0.00  0.04  0.78  0.00  0.00  0.20  0.00
  YS02006561YS02001783    1.00   0.18  0.00  0.00  0.07  0.75  0.00  0.00  0.71  0.00
  YS02163301YS02001633    1.00   0.00  0.16  0.00  0.84  0.00  0.00  0.00  0.00  0.00
  YS02163601YS02164001    1.00   0.00  0.08  0.00  0.92  0.00  0.00  0.00  0.00  0.00
  YS02164001YS02001641    1.00   0.01  0.07  0.00  0.92  0.00  0.00  0.00  0.06  0.00
  
  
  *************************
  Conduit Surcharge Summary
  *************************
  
  ----------------------------------------------------------------------------
                                                           Hours        Hours 
                         --------- Hours Full --------   Above Full   Capacity
  Conduit                Both Ends  Upstream  Dnstream   Normal Flow   Limited
  ----------------------------------------------------------------------------
  WS02003072WS02003073        0.01      0.01      0.01      1.06         0.01
  WS02004403WS02004404        0.01      0.01      0.01      0.01         0.01
  WS02004404WS02004405        0.01      0.01      0.01      4.23         0.01
  WS02004405WS02004406        0.01      0.01      0.01      0.41         0.01
  WS02006109WS02006110        0.56      0.56      2.02      0.65         0.01
  WS02006110WS02006113        0.01      0.01      2.00      0.01         0.01
  WS02006111WS02006112        0.01      0.01      2.69      0.01         0.01
  WS02006112WS02006115        0.01      0.01      0.70      0.01         0.01
  WS02006228WS02006109        1.96      2.02      1.96      3.08         1.96
  WS02006229WS02006228        1.95      1.97      1.95      2.42         1.94
  WS02006230WS02006229        2.07      2.34      2.07      4.55         2.07
  WS02006231WS02006230        0.57      0.57      0.71      4.40         0.01
  WS02006232WS02006231        0.67      0.67      2.02      0.75         0.01
  WS02006234WS02006232        1.94      1.94      2.02      0.72         0.73
  WS02006235WS02006234        1.07      1.08      1.96      4.30         0.01
  WS02006238WS02006235        1.98      1.98      2.03      0.01         0.01
  WS02006239WS02006238        2.00      2.02      2.01      2.14         1.73
  WS02006240WS02006239        1.96      1.98      1.97      2.12         1.67
  WS02006242WS02006240        1.96      1.96      2.09      2.46         0.01
  WS02006243WS02006242        1.87      1.87      2.00      0.01         0.03
  WS02006245WS02006243        1.85      1.86      1.86      1.55         1.28
  WS02006247WS02006245        1.85      1.86      1.85      4.06         1.84
  WS02006248WS02006247        1.84      1.84      1.85      0.01         0.04
  WS02006249WS02006248        1.84      1.84      1.84      4.04         0.01
  WS02006251WS02006249        1.83      1.84      1.84      2.25         1.76
  WS02006252WS02006251        2.33      2.33      2.34      2.34         0.01
  WS02006256WS02006235        4.32      4.36      5.86      1.10         0.01
  YS02001580YS02001583        0.41      0.41      0.47      0.01         0.01
  YS02001583YS02001586        0.42      0.42      0.56      0.01         0.01
  YS02001586YS02001590        0.57      0.57      0.63      0.01         0.01
  YS02001590YS02001593        0.63      0.63      0.64      0.68         0.01
  YS02001593YS02001596        0.64      0.64      0.72      0.01         0.01
  YS02001596YS02001600        0.74      0.74      0.83      0.01         0.01
  YS02001600YS02001601        0.89      0.89      1.19      0.01         0.01
  YS02001601YS02001602        1.06      1.06      1.24      0.85         0.01
  YS02001602YS02001605        1.01      1.01      1.06      1.99         0.01
  YS02001605YS02001607        0.97      1.01      0.97      1.13         0.97
  YS02001607YS02001610        0.59      0.59      0.61      0.01         0.01
  YS02001610YS02001613        0.58      0.58      0.61      0.01         0.01
  YS02001613YS02001616        0.54      0.54      0.58      0.01         0.01
  YS02001616YS02001619        0.53      0.53      0.54      0.01         0.01
  YS02001619YS02001622        0.53      0.53      0.53      0.67         0.51
  YS02001622YS02001625        0.53      0.53      0.68      0.01         0.01
  YS02001625YS02001629        0.48      0.48      0.68      0.01         0.01
  YS02001629YS02163301        0.67      0.67      0.68      0.19         0.20
  YS02001633YS02163601        0.69      0.69      0.72      0.45         0.43
  YS02001641YS02001644        0.60      0.64      0.60      1.30         0.60
  YS02001644YS02001647        0.42      0.42      0.60      0.03         0.01
  YS02001647YS02001649        0.42      0.42      0.52      0.01         0.01
  YS02001649YS02001757        0.52      0.52      0.58      0.30         0.26
  YS02001652YS02001649        0.37      0.37      0.52      0.01         0.01
  YS02001655YS02001652        0.15      0.15      0.34      0.01         0.01
  YS02001658YS02001655        0.02      0.02      0.15      0.01         0.01
  YS02001661YS02001658        0.01      0.01      0.02      0.01         0.01
  YS02001748YS02001751        0.01      0.01      0.04      0.01         0.01
  YS02001751YS02001754        0.04      0.04      0.21      0.01         0.01
  YS02001754YS02001757        0.27      0.27      0.58      0.01         0.01
  YS02001757CaochengTiaoxuchi        0.46      0.58      1.76      0.29         0.15
  YS02001759YS02001757        0.48      0.48      0.58      0.01         0.01
  YS02001762YS02001759        0.44      0.44      0.48      0.01         0.01
  YS02001765YS02001762        0.40      0.40      0.44      0.01         0.01
  YS02001767YS02001765        0.37      0.37      0.40      0.01         0.02
  YS02001770YS02001767        0.37      0.37      0.37      0.41         0.28
  YS02001774YS02001770        0.35      0.35      0.43      0.01         0.01
  YS02001779YS02001774        0.21      0.21      0.43      0.01         0.01
  YS02001783YS02001784        0.40      0.42      0.40      0.53         0.40
  YS02001784YS02001785        0.30      0.40      0.30      0.71         0.30
  YS02001786YS02001788        0.01      0.30      0.01      0.60         0.01
  YS02001790YS02001791        0.01      0.01      0.01      0.38         0.01
  YS02001793JiankangQianchi        0.01      0.01      7.32      0.01         0.01
  YS02001882YS02001884        0.37      0.37      0.38      0.01         0.01
  YS02001884YS02001887        0.40      0.40      0.41      0.01         0.01
  YS02001887YS02001890        0.42      0.42      0.43      0.01         0.01
  YS02001890YS02001895        0.36      0.36      0.45      0.01         0.01
  YS02001895YS02001898        0.35      0.35      0.36      0.01         0.01
  YS02001898YS02001901        0.36      0.36      0.40      0.01         0.01
  YS02001901YS02001904        0.39      0.39      0.40      0.01         0.01
  YS02001904YS02001907        0.39      0.39      0.59      0.01         0.01
  YS02001907YS02006553        0.72      0.72      0.78      0.01         0.01
  YS02001910YS02001907        0.44      0.44      0.57      0.01         0.01
  YS02001915YS02001910        0.37      0.37      0.44      0.01         0.01
  YS02001918YS02001915        0.29      0.29      0.37      0.01         0.01
  YS02001920YS02001918        0.29      0.29      0.30      0.01         0.01
  YS02001923YS02001920        0.25      0.25      0.30      0.01         0.01
  YS02001926YS02001923        0.01      0.01      0.01      0.01         0.01
  YS02001929YS02001926        0.01      0.01      0.01      0.01         0.01
  YS02006553YS02006556        0.51      0.51      0.59      0.01         0.01
  YS02006556YS02006558        0.55      0.55      0.60      0.01         0.01
  YS02006558YS02006561        0.32      0.50      0.32      0.68         0.32
  YS02006561YS02001783        0.25      0.25      0.42      0.01         0.01
  YS02163301YS02001633        0.68      0.68      0.71      0.01         0.01
  YS02163601YS02164001        0.64      0.64      0.72      0.04         0.01
  YS02164001YS02001641        0.64      0.64      0.64      0.73         0.61
  
  
  ***************
  Pumping Summary
  ***************
  
  ---------------------------------------------------------------------------------------------------------
                                                  Min       Avg       Max     Total     Power    % Time Off
                        Percent   Number of      Flow      Flow      Flow    Volume     Usage    Pump Curve
  Pump                 Utilized   Start-Ups       LPS       LPS       LPS  10^6 ltr     Kw-hr    Low   High
  ---------------------------------------------------------------------------------------------------------
  CC-R1                   13.31           3      0.00    683.00    683.00     2.619     47.90    0.0   21.1
  CC-R2                   11.57           5      0.00    683.00    683.00     2.276     41.68    0.0   15.4
  CC-S1                   48.46          13      0.00    200.00    200.00     2.791     17.33    0.0    0.0
  CC-S2                   32.13          14      0.00    200.00    200.00     1.850     11.46    0.0    0.0
  JK-R1                    5.06          12      0.00   1000.00   1000.00     1.457     14.45    0.0    0.0
  JK-R2                    2.59           9      0.00   1000.00   1000.00     0.747      6.27    0.0    0.0
  JK-S                    13.73          15      0.00    300.00    300.00     1.186     19.09    0.0    0.0
  

  Analysis begun on:  Wed Apr 23 23:58:05 2025
  Analysis ended on:  Wed Apr 23 23:58:07 2025
  Total elapsed time: 00:00:02