
  EPA STORM WATER MANAGEMENT MODEL - VERSION 5.2 (Build 5.2.4)
  PYSWMM TOOLKIT API - VERSION v1.0 (2023-11-27)
  ------------------------------------------------------------

  WARNING 04: minimum elevation drop used for Conduit WS02004404WS02004405
  WARNING 03: negative offset ignored for Link YS02001904YS02001907
  
  ****************
  Analysis Options
  ****************
  Flow Units ............... LPS
  Process Models:
    Rainfall/Runoff ........ YES
    RDII ................... NO
    Snowmelt ............... NO
    Groundwater ............ NO
    Flow Routing ........... YES
    Ponding Allowed ........ NO
    Water Quality .......... NO
  Infiltration Method ...... HORTON
  Flow Routing Method ...... DYNWAVE
  Surcharge Method ......... EXTRAN
  Starting Date ............ 08/28/2015 08:00:00
  Ending Date .............. 08/28/2015 16:00:00
  Antecedent Dry Days ...... 8.0
  Report Time Step ......... 00:01:00
  Wet Time Step ............ 00:01:00
  Dry Time Step ............ 00:01:00
  Routing Time Step ........ 30.00 sec
  Variable Time Step ....... YES
  Maximum Trials ........... 8
  Number of Threads ........ 4
  Head Tolerance ........... 0.001500 m
  
  
  **************************        Volume         Depth
  Runoff Quantity Continuity     hectare-m            mm
  **************************     ---------       -------
  Total Precipitation ......         3.137        94.582
  Evaporation Loss .........         0.000         0.000
  Infiltration Loss ........         0.104         3.150
  Surface Runoff ...........         3.000        90.454
  Final Storage ............         0.033         0.996
  Continuity Error (%) .....        -0.018
  
  
  **************************        Volume        Volume
  Flow Routing Continuity        hectare-m      10^6 ltr
  **************************     ---------     ---------
  Dry Weather Inflow .......         0.025         0.251
  Wet Weather Inflow .......         3.000        30.003
  Groundwater Inflow .......         0.000         0.000
  RDII Inflow ..............         0.000         0.000
  External Inflow ..........         0.083         0.834
  External Outflow .........         1.909        19.094
  Flooding Loss ............         1.262        12.624
  Evaporation Loss .........         0.000         0.000
  Exfiltration Loss ........         0.000         0.000
  Initial Stored Volume ....         0.243         2.431
  Final Stored Volume ......         0.187         1.867
  Continuity Error (%) .....        -0.196
  
  
  *************************
  Highest Continuity Errors
  *************************
  Node YS02001884 (5.27%)
  Node YS02001583 (-4.25%)
  
  
  ***************************
  Time-Step Critical Elements
  ***************************
  Link WS02006252WS02006251 (58.39%)
  Link WS02004404WS02004405 (10.93%)
  Link WS02006238WS02006235 (8.44%)
  Link YS02001791YS02001793 (5.80%)
  Link WS02006235WS02006234 (5.00%)
  
  
  ********************************
  Highest Flow Instability Indexes
  ********************************
  Link WS02006113WS02006111 (54)
  Link WS02006111WS02006112 (28)
  Link WS02004404WS02004405 (20)
  Link WS02004403WS02004404 (18)
  Link WS02004405WS02004406 (16)
  
  
  *********************************
  Most Frequent Nonconverging Nodes
  *********************************
  Node CC-1 (9.13%)
  Node CC-2 (9.13%)
  Node JK-1 (9.13%)
  Node JK-2 (9.13%)
  Node WSC (9.13%)
  
  
  *************************
  Routing Time Step Summary
  *************************
  Minimum Time Step           :     0.01 sec
  Average Time Step           :     1.55 sec
  Maximum Time Step           :     7.04 sec
  % of Time in Steady State   :     0.00
  Average Iterations per Step :     2.91
  % of Steps Not Converging   :     9.13
  Time Step Frequencies       :
     30.000 - 13.228 sec      :     0.00 %
     13.228 -  5.833 sec      :     6.27 %
      5.833 -  2.572 sec      :    10.16 %
      2.572 -  1.134 sec      :    19.79 %
      1.134 -  0.500 sec      :    63.78 %
  
  
  ***************************
  Subcatchment Runoff Summary
  ***************************
  
  ------------------------------------------------------------------------------------------------------------------------------
                            Total      Total      Total      Total     Imperv       Perv      Total       Total     Peak  Runoff
                           Precip      Runon       Evap      Infil     Runoff     Runoff     Runoff      Runoff   Runoff   Coeff
  Subcatchment                 mm         mm         mm         mm         mm         mm         mm    10^6 ltr      LPS
  ------------------------------------------------------------------------------------------------------------------------------
  sub60                     94.58       0.00       0.00       1.89      82.03       9.47      91.50        1.20   742.62   0.967
  sub61                     94.58       0.00       0.00       2.73      77.38      13.35      90.72        1.66  1032.42   0.959
  sub62                     94.58       0.00       0.00       1.26      85.73       6.31      92.04        2.52  1473.36   0.973
  sub63                     94.58       0.00       0.00       5.05      66.19      22.39      88.57        2.01  1189.06   0.936
  sub64                     94.58       0.00       0.00       2.55      79.19      11.64      90.83        2.18  1219.11   0.960
  sub65                     94.58       0.00       0.00       2.21      81.03      10.09      91.12        2.51  1365.05   0.963
  sub66                     94.58       0.00       0.00       6.26      66.08      21.18      87.25        4.07  1864.38   0.923
  sub67                     94.58       0.00       0.00       1.21      85.78       6.36      92.14        1.71  1108.90   0.974
  sub68                     94.58       0.00       0.00       2.27      80.16      10.98      91.14        2.51  1506.35   0.964
  sub69                     94.58       0.00       0.00       2.04      80.29      12.15      92.43        3.42  1813.93   0.977
  sub70                     94.58       0.00       0.00       6.82      62.26      25.34      87.60        2.53  1051.62   0.926
  sub71                     94.58       0.00       0.00       1.29      85.69       6.28      91.97        2.40  1315.29   0.972
  sub72                     94.58       0.00       0.00       1.15      86.56       5.47      92.03        1.27   647.12   0.973
  
  
  ******************
  Node Depth Summary
  ******************
  
  ---------------------------------------------------------------------------------
                                 Average  Maximum  Maximum  Time of Max    Reported
                                   Depth    Depth      HGL   Occurrence   Max Depth
  Node                 Type       Meters   Meters   Meters  days hr:min      Meters
  ---------------------------------------------------------------------------------
  WS02003060           JUNCTION     0.25     0.38     5.32     0  02:22        0.38
  WS02003066           JUNCTION     0.21     0.30     5.85     0  02:22        0.30
  WS02003067           JUNCTION     0.53     0.70     6.02     0  02:21        0.70
  WS02003069           JUNCTION     0.28     0.43     5.02     0  02:23        0.43
  WS02003072           JUNCTION     0.35     0.50     4.87     0  02:24        0.50
  WS02003073           JUNCTION     0.20     0.30     4.36     0  02:24        0.30
  WS02004401           JUNCTION     0.63     0.88     6.88     0  02:21        0.88
  WS02004402           JUNCTION     0.66     0.90     6.86     0  02:10        0.90
  WS02004403           JUNCTION     0.68     0.92     6.85     0  02:21        0.92
  WS02004404           JUNCTION     0.76     1.07     6.92     0  02:10        1.00
  WS02004405           JUNCTION     0.74     0.97     6.82     0  02:20        0.97
  WS02004406           JUNCTION     0.76     0.96     6.79     0  02:20        0.96
  WS02004407           JUNCTION     0.19     0.30     6.61     0  02:20        0.30
  WS02004409           JUNCTION     0.43     0.67     6.44     0  02:21        0.67
  WS02004410           JUNCTION     0.45     0.68     6.40     0  02:21        0.68
  WS02004411           JUNCTION     0.47     0.69     6.37     0  02:21        0.69
  WS02004412           JUNCTION     0.49     0.70     6.34     0  02:22        0.70
  WS02004413           JUNCTION     0.65     0.86     6.33     0  02:21        0.86
  WS02006109           JUNCTION     0.68     1.23     7.85     0  02:43        0.98
  WS02006110           JUNCTION     0.68     1.31     7.89     0  02:43        0.94
  WS02006111           JUNCTION     0.19     0.29     6.99     0  02:28        0.29
  WS02006112           JUNCTION     0.78     1.09     6.97     0  02:44        1.07
  WS02006113           JUNCTION     0.29     0.46     7.35     0  02:10        0.46
  WS02006115           JUNCTION     0.51     0.78     6.92     0  02:22        0.78
  WS02006116           JUNCTION     0.60     0.86     6.90     0  02:21        0.86
  WS02006228           JUNCTION     0.67     1.44     8.09     0  02:43        1.03
  WS02006229           JUNCTION     0.64     1.55     8.24     0  02:43        1.31
  WS02006230           JUNCTION     0.64     1.85     8.60     0  02:43        1.17
  WS02006231           JUNCTION     0.45     1.48     8.61     0  02:43        0.93
  WS02006232           JUNCTION     0.59     1.50     8.54     0  02:43        1.14
  WS02006234           JUNCTION     0.51     1.37     8.53     0  02:43        1.17
  WS02006235           JUNCTION     0.54     1.69     8.86     0  02:10        1.69
  WS02006238           JUNCTION     0.57     1.46     8.61     0  02:30        1.38
  WS02006239           JUNCTION     0.54     1.45     8.66     0  02:30        1.30
  WS02006240           JUNCTION     0.51     1.41     8.70     0  02:30        1.34
  WS02006242           JUNCTION     0.58     1.55     8.82     0  02:43        1.55
  WS02006243           JUNCTION     0.48     1.48     8.90     0  02:43        1.48
  WS02006245           JUNCTION     0.48     1.56     9.04     0  02:43        1.56
  WS02006247           JUNCTION     0.50     1.47     8.97     0  02:43        1.47
  WS02006248           JUNCTION     0.46     1.10     8.69     0  01:52        1.10
  WS02006249           JUNCTION     0.49     1.09     8.69     0  01:52        1.09
  WS02006251           JUNCTION     0.49     1.84     9.51     0  02:43        1.14
  WS02006252           JUNCTION     0.37     1.50     9.74     0  00:00        0.69
  WS02006256           JUNCTION     1.01     2.35     9.28     0  00:00        2.35
  WSF200               JUNCTION     0.18     0.29     5.53     0  02:22        0.29
  YS02001580           JUNCTION     0.10     1.05     9.59     0  01:46        1.05
  YS02001583           JUNCTION     0.13     1.14     9.64     0  01:46        0.89
  YS02001586           JUNCTION     0.20     1.13     9.30     0  01:46        1.13
  YS02001590           JUNCTION     0.29     1.40     9.26     0  02:10        1.40
  YS02001593           JUNCTION     0.23     1.32     9.18     0  01:46        1.29
  YS02001596           JUNCTION     0.31     1.68     9.10     0  02:08        1.68
  YS02001600           JUNCTION     0.37     1.87     9.00     0  01:46        1.86
  YS02001601           JUNCTION     0.55     2.06     8.90     0  01:46        2.06
  YS02001602           JUNCTION     0.46     1.87     8.77     0  01:46        1.87
  YS02001605           JUNCTION     0.43     1.78     8.68     0  01:46        1.78
  YS02001607           JUNCTION     0.43     1.68     8.53     0  02:10        1.68
  YS02001610           JUNCTION     0.48     1.68     8.48     0  01:46        1.68
  YS02001613           JUNCTION     0.44     1.69     8.53     0  02:10        1.66
  YS02001616           JUNCTION     0.37     1.61     8.52     0  01:46        1.61
  YS02001619           JUNCTION     0.34     1.61     8.54     0  01:57        1.61
  YS02001622           JUNCTION     0.33     1.59     8.49     0  02:01        1.58
  YS02001625           JUNCTION     0.61     1.78     8.38     0  01:50        1.78
  YS02001629           JUNCTION     0.45     1.85     8.40     0  01:52        1.85
  YS02001633           JUNCTION     0.53     2.08     8.53     0  02:00        2.08
  YS02001641           JUNCTION     0.52     2.01     8.45     0  02:10        1.97
  YS02001644           JUNCTION     0.51     1.92     8.35     0  01:54        1.92
  YS02001647           JUNCTION     0.31     1.78     8.39     0  02:00        1.78
  YS02001649           JUNCTION     0.35     2.02     8.41     0  02:08        2.01
  YS02001652           JUNCTION     0.25     1.88     8.48     0  02:00        1.86
  YS02001655           JUNCTION     0.20     1.70     8.55     0  02:00        1.70
  YS02001658           JUNCTION     0.14     1.51     8.65     0  01:53        1.47
  YS02001661           JUNCTION     0.17     1.29     8.69     0  02:01        1.28
  YS02001664           JUNCTION     0.06     0.79     8.71     0  02:01        0.79
  YS02001745           JUNCTION     0.08     0.95     8.47     0  02:01        0.94
  YS02001748           JUNCTION     0.14     1.49     8.57     0  01:55        1.35
  YS02001751           JUNCTION     0.17     1.58     8.45     0  01:52        1.53
  YS02001754           JUNCTION     0.23     1.78     8.39     0  02:00        1.78
  YS02001757           JUNCTION     0.38     2.11     8.37     0  02:00        2.11
  YS02001759           JUNCTION     0.32     2.15     8.51     0  02:00        2.15
  YS02001762           JUNCTION     0.31     2.15     8.55     0  02:10        2.08
  YS02001765           JUNCTION     0.29     2.10     8.55     0  02:10        2.02
  YS02001767           JUNCTION     0.29     2.03     8.52     0  02:10        1.97
  YS02001770           JUNCTION     0.30     1.95     8.44     0  01:59        1.95
  YS02001774           JUNCTION     0.36     2.01     8.43     0  02:10        2.00
  YS02001779           JUNCTION     0.21     1.68     8.37     0  01:51        1.68
  YS02001783           JUNCTION     0.23     1.38     7.52     0  01:51        1.25
  YS02001784           JUNCTION     0.24     1.23     7.29     0  02:10        1.23
  YS02001786           JUNCTION     0.20     0.94     6.97     0  01:51        0.88
  YS02001788           JUNCTION     0.14     0.63     6.60     0  01:59        0.62
  YS02001790           JUNCTION     0.17     0.73     6.37     0  02:02        0.72
  YS02001791           JUNCTION     0.11     0.44     5.91     0  02:13        0.43
  YS02001793           JUNCTION     0.06     0.31     5.14     0  01:56        0.30
  YS02001882           JUNCTION     0.29     1.83     8.55     0  01:49        1.72
  YS02001884           JUNCTION     0.39     1.93     8.54     0  01:49        1.83
  YS02001887           JUNCTION     0.47     1.93     8.47     0  01:49        1.91
  YS02001890           JUNCTION     0.50     1.81     8.32     0  01:49        1.81
  YS02001895           JUNCTION     0.26     1.64     8.39     0  02:10        1.64
  YS02001898           JUNCTION     0.27     1.58     8.32     0  02:10        1.56
  YS02001901           JUNCTION     0.39     1.69     8.30     0  02:10        1.67
  YS02001904           JUNCTION     0.37     1.65     8.28     0  02:17        1.65
  YS02001907           JUNCTION     0.70     1.96     8.25     0  01:51        1.96
  YS02001910           JUNCTION     0.49     2.03     8.53     0  02:00        2.03
  YS02001915           JUNCTION     0.30     2.00     8.72     0  02:00        2.00
  YS02001918           JUNCTION     0.16     1.81     8.88     0  01:52        1.73
  YS02001920           JUNCTION     0.24     2.05     9.06     0  01:52        1.79
  YS02001923           JUNCTION     0.12     1.94     9.20     0  01:52        1.55
  YS02001926           JUNCTION     0.16     1.84     9.28     0  01:52        1.38
  YS02001929           JUNCTION     0.09     1.78     9.47     0  01:52        1.16
  YS02006553           JUNCTION     0.70     2.03     8.31     0  02:10        2.01
  YS02006556           JUNCTION     0.67     2.06     8.37     0  02:10        2.04
  YS02006558           JUNCTION     0.71     2.11     8.38     0  02:00        2.11
  YS02006561           JUNCTION     0.14     1.09     7.75     0  01:51        0.91
  YS02163301           JUNCTION     0.47     1.97     8.49     0  02:10        1.96
  YS02163601           JUNCTION     0.57     2.08     8.48     0  02:10        2.07
  YS02164001           JUNCTION     0.50     2.04     8.50     0  02:10        1.98
  CC-1                 OUTFALL      0.00     0.00     0.00     0  00:00        0.00
  CC-2                 OUTFALL      0.00     0.00     0.00     0  00:00        0.00
  JK-1                 OUTFALL      0.00     0.00     0.00     0  00:00        0.00
  JK-2                 OUTFALL      0.00     0.00     0.00     0  00:00        0.00
  WSC                  OUTFALL      0.20     0.30     0.97     0  02:25        0.30
  CC-storage           STORAGE      0.92     1.90     7.40     0  02:36        1.90
  JK-storage           STORAGE      2.85     4.23     5.03     0  02:10        4.21
  
  
  *******************
  Node Inflow Summary
  *******************
  
  -------------------------------------------------------------------------------------------------
                                  Maximum  Maximum                  Lateral       Total        Flow
                                  Lateral    Total  Time of Max      Inflow      Inflow     Balance
                                   Inflow   Inflow   Occurrence      Volume      Volume       Error
  Node                 Type           LPS      LPS  days hr:min    10^6 ltr    10^6 ltr     Percent
  -------------------------------------------------------------------------------------------------
  WS02003060           JUNCTION     16.53   557.31     0  02:22       0.476        6.69       0.030
  WS02003066           JUNCTION      0.00   540.46     0  02:22           0        6.22       0.020
  WS02003067           JUNCTION      0.00   540.36     0  02:21           0        6.22       0.065
  WS02003069           JUNCTION      0.32   557.46     0  02:22     0.00922         6.7       0.052
  WS02003072           JUNCTION      0.00   557.20     0  02:23           0         6.7       0.094
  WS02003073           JUNCTION      1.82   558.86     0  02:24      0.0524        6.74       0.075
  WS02004401           JUNCTION      0.00   541.14     0  02:28           0        6.31       0.156
  WS02004402           JUNCTION      0.00   542.79     0  03:00           0         6.3       0.159
  WS02004403           JUNCTION      0.00   543.50     0  03:01           0        6.29       0.154
  WS02004404           JUNCTION      0.16   565.32     0  02:10     0.00467        6.29       0.104
  WS02004405           JUNCTION      0.04   609.38     0  02:38      0.0011        6.28       0.089
  WS02004406           JUNCTION      0.00   548.76     0  02:20           0        6.28       0.323
  WS02004407           JUNCTION      0.00   542.20     0  02:20           0        6.26       0.015
  WS02004409           JUNCTION      0.00   541.41     0  02:20           0        6.25       0.036
  WS02004410           JUNCTION      0.00   540.85     0  02:21           0        6.25       0.063
  WS02004411           JUNCTION      0.00   540.60     0  02:20           0        6.25       0.082
  WS02004412           JUNCTION      0.00   540.56     0  02:21           0        6.24       0.113
  WS02004413           JUNCTION      0.00   540.59     0  02:21           0        6.24       0.202
  WS02006109           JUNCTION      1.23   562.65     0  02:43      0.0354        6.36       0.111
  WS02006110           JUNCTION      0.00   562.20     0  02:43           0        6.35       0.099
  WS02006111           JUNCTION      0.00   561.51     0  02:49           0        6.34       0.010
  WS02006112           JUNCTION      0.00   543.78     0  02:28           0        6.34       0.272
  WS02006113           JUNCTION      0.00   569.46     0  02:43           0        6.34       0.026
  WS02006115           JUNCTION      0.00   547.98     0  03:12           0        6.32       0.098
  WS02006116           JUNCTION      0.00   541.06     0  02:40           0        6.32       0.087
  WS02006228           JUNCTION      0.00   561.62     0  02:43           0        6.32       0.032
  WS02006229           JUNCTION      0.00   561.33     0  02:43           0        6.33       0.066
  WS02006230           JUNCTION     10.28   588.18     0  02:47       0.296        6.33       0.060
  WS02006231           JUNCTION      0.00   578.19     0  02:26           0        6.03      -0.012
  WS02006232           JUNCTION      0.00   577.54     0  02:26           0        6.04       0.117
  WS02006234           JUNCTION      0.00   573.90     0  02:26           0        6.04      -0.094
  WS02006235           JUNCTION      0.00   567.28     0  02:26           0        6.07       0.093
  WS02006238           JUNCTION      0.00   425.85     0  03:05           0        4.95      -0.139
  WS02006239           JUNCTION      0.00   423.95     0  03:05           0        4.93      -0.120
  WS02006240           JUNCTION      0.00   423.03     0  03:21           0        4.92      -0.036
  WS02006242           JUNCTION      0.00   422.70     0  03:21           0        4.91      -0.007
  WS02006243           JUNCTION      0.00   422.36     0  03:21           0         4.9      -0.014
  WS02006245           JUNCTION      0.00   422.36     0  03:21           0         4.9       0.203
  WS02006247           JUNCTION      0.00   423.31     0  03:21           0         4.9       0.013
  WS02006248           JUNCTION      0.00   425.63     0  03:21           0         4.9       0.021
  WS02006249           JUNCTION      0.00   459.02     0  00:00           0        5.19       0.140
  WS02006251           JUNCTION      0.08   407.22     0  01:52     0.00222        5.19      -0.015
  WS02006252           JUNCTION      0.00   400.00     0  00:00           0        5.19      -0.035
  WS02006256           JUNCTION      0.00   300.00     0  00:00           0        1.66      -0.413
  WSF200               JUNCTION      0.00   540.51     0  02:22           0        6.22       0.006
  YS02001580           JUNCTION      0.00    76.94     0  01:46           0     0.00422       0.478
  YS02001583           JUNCTION      0.00   129.25     0  01:46           0      0.0157      -4.078
  YS02001586           JUNCTION   1051.62  1051.62     0  02:04        2.53        2.54       0.042
  YS02001590           JUNCTION      0.00   320.19     0  02:10           0        1.69      -0.024
  YS02001593           JUNCTION      0.00   321.10     0  02:10           0        1.69       0.000
  YS02001596           JUNCTION      0.00   318.15     0  02:01           0        1.69      -0.011
  YS02001600           JUNCTION      0.00   318.60     0  02:08           0        1.69       0.013
  YS02001601           JUNCTION   1813.93  2131.70     0  02:02        3.42        5.12       0.015
  YS02001602           JUNCTION      0.00   500.27     0  01:46           0        2.73       0.022
  YS02001605           JUNCTION      0.00   500.22     0  01:46           0        2.54       0.027
  YS02001607           JUNCTION      0.00   500.03     0  01:46           0        2.54       0.071
  YS02001610           JUNCTION      0.00   953.00     0  02:07           0        3.13       0.071
  YS02001613           JUNCTION      0.00   616.44     0  02:07           0        2.39       0.067
  YS02001616           JUNCTION      0.00   616.32     0  02:07           0         2.4       0.011
  YS02001619           JUNCTION   1864.38  1864.38     0  02:03        4.07        5.86      -0.003
  YS02001622           JUNCTION      0.00  1053.77     0  02:03           0        5.21      -0.002
  YS02001625           JUNCTION      0.00  1504.85     0  02:07           0        5.66       0.182
  YS02001629           JUNCTION      0.00   916.96     0  01:50           0        3.97       0.010
  YS02001633           JUNCTION   1365.25  1365.25     0  02:02        2.51        5.92       0.058
  YS02001641           JUNCTION      0.00  1326.07     0  01:50           0        5.37       0.049
  YS02001644           JUNCTION   1219.15  2093.59     0  02:02        2.18        7.58       0.040
  YS02001647           JUNCTION      0.00  1697.76     0  01:50           0        6.32       0.001
  YS02001649           JUNCTION      0.00  1910.37     0  01:50           0         8.3       0.001
  YS02001652           JUNCTION      0.00  1200.89     0  02:01           0        2.02      -0.053
  YS02001655           JUNCTION      0.15  1200.24     0  02:01     0.00443        2.02      -0.045
  YS02001658           JUNCTION      0.00  1200.30     0  02:01           0        2.01      -0.041
  YS02001661           JUNCTION      0.00  1199.65     0  02:01           0        2.01       0.009
  YS02001664           JUNCTION   1189.06  1189.06     0  02:02        2.01        2.01      -0.007
  YS02001745           JUNCTION    742.62   742.62     0  02:02         1.2         1.2       0.127
  YS02001748           JUNCTION      0.04   755.01     0  02:01      0.0013        1.21      -0.204
  YS02001751           JUNCTION      0.01   755.35     0  02:01    0.000317        1.21       0.023
  YS02001754           JUNCTION      0.26   755.96     0  02:01     0.00749        1.22      -0.101
  YS02001757           JUNCTION      0.00  3178.80     0  01:59           0        13.1       0.018
  YS02001759           JUNCTION   1032.46  1372.57     0  02:01        1.67         3.6      -0.010
  YS02001762           JUNCTION      0.00   716.06     0  01:56           0        1.93      -0.003
  YS02001765           JUNCTION      0.00   715.83     0  01:56           0        1.93      -0.002
  YS02001767           JUNCTION      0.54   716.70     0  01:56      0.0154        1.93       0.010
  YS02001770           JUNCTION   1473.51  1473.51     0  02:02        2.53        2.57      -0.001
  YS02001774           JUNCTION      0.00   851.06     0  02:03           0       0.621       0.167
  YS02001779           JUNCTION      0.01   851.02     0  02:04    0.000144       0.573      -0.046
  YS02001783           JUNCTION      0.00  1173.85     0  02:00           0        5.19       0.006
  YS02001784           JUNCTION      1.06  1174.21     0  02:00      0.0305        5.22       0.010
  YS02001786           JUNCTION      0.06  1174.69     0  02:00     0.00162        5.22       0.015
  YS02001788           JUNCTION      0.07  1175.36     0  02:00     0.00204        5.22       0.006
  YS02001790           JUNCTION      0.15  1180.63     0  02:00     0.00446        5.22       0.021
  YS02001791           JUNCTION      0.00  1298.13     0  02:02           0        5.22      -0.029
  YS02001793           JUNCTION      0.00  1257.31     0  01:59           0        5.22       0.001
  YS02001882           JUNCTION      0.00    39.68     0  01:49           0      0.0138       4.396
  YS02001884           JUNCTION      0.00    54.46     0  01:48           0      0.0505       5.562
  YS02001887           JUNCTION   1109.35  1112.09     0  02:01        1.73        1.76       0.247
  YS02001890           JUNCTION      0.00  1113.33     0  02:01           0        1.72       0.293
  YS02001895           JUNCTION      0.00   521.75     0  02:08           0        1.45       0.124
  YS02001898           JUNCTION      0.00   521.49     0  02:08           0        1.45      -0.002
  YS02001901           JUNCTION      0.00   517.66     0  02:01           0        1.45       0.228
  YS02001904           JUNCTION      0.00   517.56     0  02:01           0        1.46       0.185
  YS02001907           JUNCTION      0.00  2819.71     0  02:02           0         5.3       0.345
  YS02001910           JUNCTION      0.00  1962.86     0  02:02           0        3.75       0.189
  YS02001915           JUNCTION   1315.31  1962.48     0  02:02        2.41        3.78       0.040
  YS02001918           JUNCTION      0.00   651.77     0  02:03           0         1.4       0.029
  YS02001920           JUNCTION      2.87   652.61     0  02:03      0.0827        1.38       0.065
  YS02001923           JUNCTION      0.04   649.04     0  02:03     0.00109        1.29      -0.018
  YS02001926           JUNCTION      0.05   648.80     0  02:03      0.0015        1.27      -0.015
  YS02001929           JUNCTION    647.12   647.12     0  02:03        1.27        1.27      -0.057
  YS02006553           JUNCTION      0.00   795.10     0  02:25           0        2.89       0.415
  YS02006556           JUNCTION      0.00   795.03     0  02:25           0         2.9       0.281
  YS02006558           JUNCTION   1507.23  1507.23     0  02:02        2.53        5.31       0.072
  YS02006561           JUNCTION      0.00  1172.02     0  02:00           0        5.19      -0.006
  YS02163301           JUNCTION      0.00   918.98     0  01:50           0        3.97       0.039
  YS02163601           JUNCTION      0.11  1328.77     0  01:50     0.00317        5.36       0.090
  YS02164001           JUNCTION      0.00  1329.14     0  01:50           0        5.36       0.032
  CC-1                 OUTFALL       0.00   683.00     0  00:00           0        4.45       0.000
  CC-2                 OUTFALL       0.00   683.00     0  00:00           0        4.27       0.000
  JK-1                 OUTFALL       0.00  1000.00     0  00:00           0        2.74       0.000
  JK-2                 OUTFALL       0.00  1000.00     0  00:00           0       0.893       0.000
  WSC                  OUTFALL       0.00   558.70     0  02:25           0        6.74       0.000
  CC-storage           STORAGE       0.00  3177.19     0  01:59           0        15.3      -0.188
  JK-storage           STORAGE       0.00  1237.61     0  02:22           0        5.37      -0.188
  
  
  **********************
  Node Surcharge Summary
  **********************
  
  Surcharging occurs when water rises above the top of the highest conduit.
  ---------------------------------------------------------------------
                                               Max. Height   Min. Depth
                                   Hours       Above Crown    Below Rim
  Node                 Type      Surcharged         Meters       Meters
  ---------------------------------------------------------------------
  WS02004404           JUNCTION        0.09          0.066        2.714
  WS02006109           JUNCTION        2.22          0.412        1.408
  WS02006110           JUNCTION        1.02          0.395        1.455
  WS02006112           JUNCTION        1.16          0.092        1.588
  WS02006228           JUNCTION        2.20          0.614        1.586
  WS02006229           JUNCTION        2.24          0.746        1.704
  WS02006230           JUNCTION        1.04          0.774        0.796
  WS02006231           JUNCTION        1.13          0.773        0.757
  WS02006232           JUNCTION        2.35          0.802        0.678
  WS02006234           JUNCTION        1.42          0.650        0.590
  WS02006235           JUNCTION        2.20          0.981        0.309
  WS02006238           JUNCTION        2.27          0.742        0.688
  WS02006239           JUNCTION        2.21          0.710        0.580
  WS02006240           JUNCTION        2.23          0.701        0.689
  WS02006242           JUNCTION        2.32          0.820        0.000
  WS02006243           JUNCTION        2.24          0.770        0.000
  WS02006245           JUNCTION        2.24          0.850        0.000
  WS02006247           JUNCTION        2.26          0.760        0.000
  WS02006248           JUNCTION        2.23          0.380        0.000
  WS02006249           JUNCTION        2.24          0.390        0.000
  WS02006251           JUNCTION        1.20          0.815        0.365
  WS02006252           JUNCTION        2.58          1.100        0.000
  WS02006256           JUNCTION        6.13          2.050        0.000
  YS02001580           JUNCTION        0.93          0.450        0.000
  YS02001583           JUNCTION        0.94          0.500        0.000
  YS02001586           JUNCTION        1.13          0.510        0.000
  YS02001590           JUNCTION        1.23          0.750        0.000
  YS02001593           JUNCTION        1.23          0.696        0.144
  YS02001596           JUNCTION        1.37          0.948        0.122
  YS02001600           JUNCTION        1.50          1.190        0.000
  YS02001601           JUNCTION        1.78          1.440        0.000
  YS02001602           JUNCTION        1.69          1.270        0.000
  YS02001605           JUNCTION        1.65          1.180        0.000
  YS02001607           JUNCTION        1.25          0.680        0.000
  YS02001610           JUNCTION        1.28          0.680        0.000
  YS02001613           JUNCTION        1.25          0.689        0.011
  YS02001616           JUNCTION        1.20          0.610        0.000
  YS02001619           JUNCTION        1.18          0.610        0.000
  YS02001622           JUNCTION        1.18          0.585        0.035
  YS02001625           JUNCTION        1.36          0.780        0.000
  YS02001629           JUNCTION        1.11          0.470        0.000
  YS02001633           JUNCTION        1.40          1.060        0.000
  YS02001641           JUNCTION        1.35          1.013        0.087
  YS02001644           JUNCTION        1.32          0.920        0.000
  YS02001647           JUNCTION        1.11          0.777        0.123
  YS02001649           JUNCTION        1.24          1.021        0.029
  YS02001652           JUNCTION        1.04          0.850        0.280
  YS02001655           JUNCTION        0.82          0.697        0.503
  YS02001658           JUNCTION        0.46          0.509        0.791
  YS02001661           JUNCTION        0.15          0.218        1.172
  YS02001748           JUNCTION        0.36          0.413        0.777
  YS02001751           JUNCTION        0.65          0.575        0.625
  YS02001754           JUNCTION        0.96          0.727        0.423
  YS02001757           JUNCTION        1.30          1.110        0.100
  YS02001759           JUNCTION        1.23          1.147        0.063
  YS02001762           JUNCTION        1.20          1.149        0.001
  YS02001765           JUNCTION        1.16          1.100        0.000
  YS02001767           JUNCTION        1.13          1.030        0.000
  YS02001770           JUNCTION        1.10          0.920        0.000
  YS02001774           JUNCTION        1.18          1.013        0.037
  YS02001779           JUNCTION        0.92          0.680        0.000
  YS02001783           JUNCTION        0.78          0.582        1.018
  YS02001784           JUNCTION        0.75          0.427        1.063
  YS02001786           JUNCTION        0.62          0.137        1.293
  YS02001882           JUNCTION        0.71          0.830        0.000
  YS02001884           JUNCTION        0.72          0.866        0.004
  YS02001887           JUNCTION        0.77          0.882        0.068
  YS02001890           JUNCTION        0.79          0.760        0.000
  YS02001895           JUNCTION        0.70          0.639        0.111
  YS02001898           JUNCTION        0.69          0.553        0.187
  YS02001901           JUNCTION        0.75          0.690        0.180
  YS02001904           JUNCTION        0.74          0.647        0.203
  YS02001907           JUNCTION        1.07          0.950        0.000
  YS02001910           JUNCTION        0.82          1.026        0.074
  YS02001915           JUNCTION        0.71          1.000        0.000
  YS02001918           JUNCTION        0.60          0.810        0.000
  YS02001920           JUNCTION        0.62          1.053        0.087
  YS02001923           JUNCTION        0.23          0.727        0.093
  YS02001926           JUNCTION        0.28          0.836        0.064
  YS02001929           JUNCTION        0.11          0.780        0.000
  YS02006553           JUNCTION        1.10          1.027        0.163
  YS02006556           JUNCTION        0.94          1.023        0.327
  YS02006558           JUNCTION        0.92          1.009        0.391
  YS02006561           JUNCTION        0.57          0.292        0.858
  YS02163301           JUNCTION        1.38          0.974        0.056
  YS02163601           JUNCTION        1.43          1.080        0.000
  YS02164001           JUNCTION        1.35          1.043        0.057
  
  
  *********************
  Node Flooding Summary
  *********************
  
  Flooding refers to all water that overflows a node, whether it ponds or not.
  --------------------------------------------------------------------------
                                                             Total   Maximum
                                 Maximum   Time of Max       Flood    Ponded
                        Hours       Rate    Occurrence      Volume     Depth
  Node                 Flooded       LPS   days hr:min    10^6 ltr    Meters
  --------------------------------------------------------------------------
  WS02006242              0.01      0.74      0  02:43       0.000     0.000
  WS02006243              0.01      2.50      0  02:43       0.000     0.000
  WS02006245              0.01      1.77      0  02:43       0.000     0.000
  WS02006247              0.01      2.23      0  02:43       0.000     0.000
  WS02006248              0.01     20.63      0  02:30       0.000     0.000
  WS02006249              1.17    120.63      0  01:52       0.287     0.000
  WS02006252              0.01    245.63      0  00:00       0.000     0.000
  WS02006256              1.53    293.19      0  00:00       0.525     0.000
  YS02001580              0.01     42.09      0  01:47       0.000     0.000
  YS02001583              0.01     98.94      0  01:46       0.000     0.000
  YS02001586              0.75    733.97      0  02:04       0.837     0.000
  YS02001590              0.01      0.43      0  02:10       0.000     0.000
  YS02001600              0.01      0.79      0  01:46       0.000     0.000
  YS02001601              1.04   1733.90      0  02:02       2.389     0.000
  YS02001602              0.92     62.02      0  02:17       0.189     0.000
  YS02001605              0.01      2.84      0  02:10       0.000     0.000
  YS02001607              0.01      0.65      0  02:10       0.000     0.000
  YS02001610              0.82    952.76      0  02:07       1.333     0.000
  YS02001616              0.03     30.72      0  02:10       0.000     0.000
  YS02001619              0.14    201.91      0  02:03       0.057     0.000
  YS02001625              0.80   1504.84      0  02:07       2.239     0.000
  YS02001629              0.28    259.09      0  02:02       0.110     0.000
  YS02001633              0.01     26.45      0  02:10       0.000     0.000
  YS02001644              0.37   2093.34      0  02:02       1.287     0.000
  YS02001765              0.01     14.75      0  02:10       0.000     0.000
  YS02001767              0.01     19.57      0  02:10       0.000     0.000
  YS02001770              0.10    295.33      0  02:02       0.058     0.000
  YS02001779              0.32    851.02      0  02:04       0.552     0.000
  YS02001882              0.01      7.14      0  01:49       0.000     0.000
  YS02001890              0.29    596.72      0  02:01       0.263     0.000
  YS02001907              0.54   2819.55      0  02:02       2.495     0.000
  YS02001915              0.01      2.88      0  02:00       0.000     0.000
  YS02001918              0.01     77.46      0  01:52       0.000     0.000
  YS02001929              0.01    167.57      0  01:52       0.000     0.000
  YS02163601              0.01     38.87      0  02:10       0.000     0.000
  
  
  **********************
  Storage Volume Summary
  **********************
  
  ------------------------------------------------------------------------------------------------
                         Average    Avg   Evap  Exfil     Maximum    Max    Time of Max    Maximum
                          Volume   Pcnt   Pcnt   Pcnt      Volume   Pcnt     Occurrence    Outflow
  Storage Unit           1000 m³   Full   Loss   Loss     1000 m³   Full    days hr:min        LPS
  ------------------------------------------------------------------------------------------------
  CC-storage               2.564   40.0    0.0    0.0       5.307   82.8       0  02:36    1783.53
  JK-storage               0.143   49.2    0.0    0.0       0.212   72.9       0  02:10    2300.00
  
  
  ***********************
  Outfall Loading Summary
  ***********************
  
  -----------------------------------------------------------
                         Flow       Avg       Max       Total
                         Freq      Flow      Flow      Volume
  Outfall Node           Pcnt       LPS       LPS    10^6 ltr
  -----------------------------------------------------------
  CC-1                  19.02    683.00    683.00       4.452
  CC-2                  19.63    683.00    683.00       4.267
  JK-1                   8.90   1000.00   1000.00       2.743
  JK-2                   2.67   1000.00   1000.00       0.893
  WSC                   99.97    277.12    558.70       6.739
  -----------------------------------------------------------
  System                30.04   3643.12   3921.87      19.093
  
  
  ********************
  Link Flow Summary
  ********************
  
  -----------------------------------------------------------------------------
                                 Maximum  Time of Max   Maximum    Max/    Max/
                                  |Flow|   Occurrence   |Veloc|    Full    Full
  Link                 Type          LPS  days hr:min     m/sec    Flow   Depth
  -----------------------------------------------------------------------------
  1                    CONDUIT    558.70     0  02:25      2.83    0.19    0.30
  WS02003060WS02003069 CONDUIT    557.14     0  02:22      1.64    0.22    0.34
  WS02003066WSF200     CONDUIT    540.51     0  02:22      2.86    0.09    0.22
  WS02003067WS02003066 CONDUIT    540.46     0  02:22      1.21    0.17    0.42
  WS02003069WS02003072 CONDUIT    557.20     0  02:23      1.37    0.27    0.39
  WS02003072WS02003073 CONDUIT    557.04     0  02:24      1.44    1.20    0.37
  WS02004401WS02004402 CONDUIT    542.79     0  03:00      0.98    0.65    0.89
  WS02004402WS02004403 CONDUIT    543.50     0  03:01      0.97    0.78    0.91
  WS02004403WS02004404 CONDUIT    565.16     0  02:10      0.92    0.41    0.96
  WS02004404WS02004405 CONDUIT    609.35     0  02:38      1.08    5.97    0.98
  WS02004405WS02004406 CONDUIT    548.76     0  02:20      0.99    1.08    0.96
  WS02004406WS02004407 CONDUIT    542.20     0  02:20      1.04    0.24    0.63
  WS02004407WS02004409 CONDUIT    541.41     0  02:20      1.48    0.19    0.48
  WS02004409WS02004410 CONDUIT    540.85     0  02:21      0.97    0.70    0.68
  WS02004410WS02004411 CONDUIT    540.60     0  02:20      0.94    0.74    0.69
  WS02004411WS02004412 CONDUIT    540.56     0  02:21      0.93    0.77    0.70
  WS02004412WS02004413 CONDUIT    540.59     0  02:21      0.82    0.36    0.78
  WS02004413WS02003067 CONDUIT    540.36     0  02:21      1.11    0.23    0.59
  WS02006109WS02006110 CONDUIT    562.20     0  02:43      1.12    1.08    1.00
  WS02006110WS02006113 CONDUIT    569.46     0  02:43      1.38    0.52    0.79
  WS02006111WS02006112 CONDUIT    543.78     0  02:28      1.81    0.26    0.67
  WS02006112WS02006115 CONDUIT    547.98     0  03:12      0.77    0.32    0.88
  WS02006113WS02006111 CONDUIT    561.51     0  02:49      2.47    0.67    0.46
  WS02006115WS02006116 CONDUIT    541.06     0  02:40      0.97    0.69    0.79
  WS02006116WS02004401 CONDUIT    541.14     0  02:28      0.98    0.75    0.87
  WS02006228WS02006109 CONDUIT    561.42     0  02:43      1.12    2.45    1.00
  WS02006229WS02006228 CONDUIT    561.62     0  02:43      1.14    1.86    1.00
  WS02006230WS02006229 CONDUIT    561.33     0  02:43      1.46   12.49    1.00
  WS02006231WS02006230 CONDUIT    577.90     0  02:47      1.57    8.77    1.00
  WS02006232WS02006231 CONDUIT    578.19     0  02:26      1.51    1.21    1.00
  WS02006234WS02006232 CONDUIT    577.54     0  02:26      1.50    1.17    1.00
  WS02006235WS02006234 CONDUIT    573.90     0  02:26      1.49    6.05    1.00
  WS02006238WS02006235 CONDUIT    425.40     0  03:05      1.45    0.95    1.00
  WS02006239WS02006238 CONDUIT    425.85     0  03:05      1.11    1.36    1.00
  WS02006240WS02006239 CONDUIT    423.95     0  03:05      1.24    1.33    1.00
  WS02006242WS02006240 CONDUIT    423.03     0  03:21      1.13    1.68    1.00
  WS02006243WS02006242 CONDUIT    422.70     0  03:21      1.40    0.90    1.00
  WS02006245WS02006243 CONDUIT    422.36     0  03:21      1.45    1.25    1.00
  WS02006247WS02006245 CONDUIT    422.36     0  03:21      1.43    3.35    1.00
  WS02006248WS02006247 CONDUIT    423.31     0  03:21      1.44    0.92    1.00
  WS02006249WS02006248 CONDUIT    425.63     0  03:21      1.36    2.33    1.00
  WS02006251WS02006249 CONDUIT    459.02     0  00:00      1.99    1.32    1.00
  WS02006252WS02006251 CONDUIT    407.15     0  01:52     26.79    1.49    1.00
  WS02006256WS02006235 CONDUIT    288.91     0  00:00      4.23    3.06    1.00
  WSF200WS02003060     CONDUIT    540.78     0  02:22      2.06    0.12    0.28
  YS02001580YS02001583 CONDUIT     76.94     0  01:46      0.55    0.30    1.00
  YS02001583YS02001586 CONDUIT    129.25     0  01:46      0.54    0.20    1.00
  YS02001586YS02001590 CONDUIT    320.19     0  02:10      1.24    0.56    1.00
  YS02001590YS02001593 CONDUIT    321.10     0  02:10      1.14    2.02    1.00
  YS02001593YS02001596 CONDUIT    318.15     0  02:01      1.70    0.50    1.00
  YS02001596YS02001600 CONDUIT    318.60     0  02:08      1.26    0.62    1.00
  YS02001600YS02001601 CONDUIT    318.75     0  02:08      1.13    0.55    1.00
  YS02001601YS02001602 CONDUIT    500.27     0  01:46      1.77    1.81    1.00
  YS02001602YS02001605 CONDUIT    500.22     0  01:46      1.77   10.59    1.00
  YS02001605YS02001607 CONDUIT    500.03     0  01:46      1.77    2.74    1.00
  YS02001607YS02001610 CONDUIT    505.95     0  01:45      0.64    0.48    1.00
  YS02001610YS02001613 CONDUIT    616.35     0  02:07      0.78    0.71    1.00
  YS02001613YS02001616 CONDUIT    616.44     0  02:07      0.78    0.53    1.00
  YS02001616YS02001619 CONDUIT    616.32     0  02:07      0.78    1.07    1.00
  YS02001619YS02001622 CONDUIT   1053.77     0  02:03      1.34    1.55    1.00
  YS02001622YS02001625 CONDUIT   1053.59     0  02:03      1.34    0.56    1.00
  YS02001625YS02001629 CONDUIT    916.96     0  01:50      1.17    0.44    1.00
  YS02001629YS02163301 CONDUIT    918.98     0  01:50      1.17    1.13    1.00
  YS02001633YS02163601 CONDUIT   1328.66     0  01:50      1.69    1.39    1.00
  YS02001641YS02001644 CONDUIT   1326.24     0  01:50      1.69    4.29    1.00
  YS02001644YS02001647 CONDUIT   1697.76     0  01:50      2.18    1.00    1.00
  YS02001647YS02001649 CONDUIT   1698.72     0  01:50      2.29    0.90    1.00
  YS02001649YS02001757 CONDUIT   1887.09     0  01:51      2.47    1.15    1.00
  YS02001652YS02001649 CONDUIT   1201.33     0  02:01      1.53    0.60    1.00
  YS02001655YS02001652 CONDUIT   1200.89     0  02:01      1.53    0.58    1.00
  YS02001658YS02001655 CONDUIT   1200.09     0  02:01      1.83    0.51    1.00
  YS02001661YS02001658 CONDUIT   1200.30     0  02:01      2.21    0.47    1.00
  YS02001664YS02001661 CONDUIT   1199.65     0  02:01      2.16    0.38    0.89
  YS02001745YS02001748 CONDUIT    754.96     0  02:01      2.07    0.29    0.98
  YS02001748YS02001751 CONDUIT    755.34     0  02:01      1.63    0.38    1.00
  YS02001751YS02001754 CONDUIT    755.70     0  02:01      1.40    0.36    1.00
  YS02001754YS02001757 CONDUIT    756.34     0  02:01      0.96    0.30    1.00
  YS02001757CaochengTiaoxuchi CONDUIT   3177.19     0  01:59      4.05    1.38    1.00
  YS02001759YS02001757 CONDUIT   1372.45     0  02:01      1.75    0.98    1.00
  YS02001762YS02001759 CONDUIT    717.06     0  01:56      0.91    0.83    1.00
  YS02001765YS02001762 CONDUIT    716.06     0  01:56      0.91    0.67    1.00
  YS02001767YS02001765 CONDUIT    715.83     0  01:56      0.91    0.90    1.00
  YS02001770YS02001767 CONDUIT    716.17     0  01:56      0.91    2.84    1.00
  YS02001774YS02001770 CONDUIT    851.06     0  02:03      1.08    0.54    1.00
  YS02001779YS02001774 CONDUIT    851.02     0  02:04      1.08    0.43    1.00
  YS02001783YS02001784 CONDUIT   1173.15     0  02:00      2.33    1.62    1.00
  YS02001784YS02001785 CONDUIT   1174.64     0  02:00      2.34    2.73    1.00
  YS02001786YS02001788 CONDUIT   1175.29     0  02:00      2.50    2.26    0.89
  YS02001788YS02001790 CONDUIT   1180.47     0  02:00      2.72    0.87    0.84
  YS02001790YS02001791 CONDUIT   1298.13     0  02:02      3.44    1.41    0.71
  YS02001791YS02001793 CONDUIT   1257.31     0  01:59      6.69    0.54    0.45
  YS02001793JiankangQianchi CONDUIT   1237.61     0  02:22      2.48    0.10    0.65
  YS02001882YS02001884 CONDUIT     39.68     0  01:49      0.17    0.05    1.00
  YS02001884YS02001887 CONDUIT     54.46     0  01:48      0.13    0.07    1.00
  YS02001887YS02001890 CONDUIT   1113.33     0  02:01      1.42    1.91    1.00
  YS02001890YS02001895 CONDUIT    521.75     0  02:08      0.66    0.24    1.00
  YS02001895YS02001898 CONDUIT    521.49     0  02:08      0.66    0.90    1.00
  YS02001898YS02001901 CONDUIT    517.66     0  02:01      0.66    0.33    1.00
  YS02001901YS02001904 CONDUIT    517.56     0  02:01      0.66    0.80    1.00
  YS02001904YS02001907 CONDUIT    519.78     0  02:08      0.66    0.18    1.00
  YS02001907YS02006553 CONDUIT    795.10     0  02:25      0.88    0.94    1.00
  YS02001910YS02001907 CONDUIT   1963.28     0  02:02      2.50    1.11    1.00
  YS02001915YS02001910 CONDUIT   1962.86     0  02:02      2.50    0.97    1.00
  YS02001918YS02001915 CONDUIT    651.45     0  02:03      0.83    0.36    1.00
  YS02001920YS02001918 CONDUIT    651.77     0  02:03      0.83    0.63    1.00
  YS02001923YS02001920 CONDUIT    649.74     0  02:03      0.83    0.29    1.00
  YS02001926YS02001923 CONDUIT    649.01     0  02:03      0.94    0.93    1.00
  YS02001929YS02001926 CONDUIT    648.75     0  02:03      1.08    0.31    1.00
  YS02006553YS02006556 CONDUIT    795.03     0  02:25      1.01    0.68    1.00
  YS02006556YS02006558 CONDUIT    796.39     0  02:25      1.01    0.63    1.00
  YS02006558YS02006561 CONDUIT   1172.02     0  02:00      4.15    2.59    1.00
  YS02006561YS02001783 CONDUIT   1173.85     0  02:00      2.34    0.61    1.00
  YS02163301YS02001633 CONDUIT    919.95     0  01:50      1.17    0.86    1.00
  YS02163601YS02164001 CONDUIT   1329.14     0  01:50      1.69    1.18    1.00
  YS02164001YS02001641 CONDUIT   1326.07     0  01:50      1.69    1.81    1.00
  CC-R1                PUMP       683.00     0  00:00              1.00
  CC-R2                PUMP       683.00     0  00:00              1.00
  CC-S1                PUMP       200.00     0  00:00              1.00
  CC-S2                PUMP       200.00     0  00:00              1.00
  JK-R1                PUMP      1000.00     0  00:00              1.00
  JK-R2                PUMP      1000.00     0  00:00              1.00
  JK-S                 PUMP       300.00     0  00:00              1.00
  
  
  ***************************
  Flow Classification Summary
  ***************************
  
  -------------------------------------------------------------------------------------
                      Adjusted    ---------- Fraction of Time in Flow Class ---------- 
                       /Actual         Up    Down  Sub   Sup   Up    Down  Norm  Inlet 
  Conduit               Length    Dry  Dry   Dry   Crit  Crit  Crit  Crit  Ltd   Ctrl  
  -------------------------------------------------------------------------------------
  1                       1.00   0.00  0.00  0.00  0.00  1.00  0.00  0.00  0.42  0.00
  WS02003060WS02003069    1.00   0.00  0.00  0.00  0.98  0.02  0.00  0.00  0.62  0.00
  WS02003066WSF200        1.00   0.12  0.00  0.00  0.00  0.87  0.00  0.00  0.73  0.00
  WS02003067WS02003066    1.00   0.10  0.02  0.00  0.88  0.00  0.00  0.00  0.00  0.00
  WS02003069WS02003072    1.00   0.00  0.00  0.00  0.99  0.01  0.00  0.00  0.68  0.00
  WS02003072WS02003073    1.00   0.00  0.00  0.00  0.00  0.00  0.00  1.00  0.00  0.00
  WS02004401WS02004402    1.00   0.02  0.00  0.00  0.98  0.00  0.00  0.00  0.00  0.00
  WS02004402WS02004403    1.00   0.02  0.00  0.00  0.97  0.00  0.00  0.00  0.00  0.00
  WS02004403WS02004404    1.00   0.00  0.03  0.00  0.97  0.00  0.00  0.00  0.00  0.00
  WS02004404WS02004405    1.00   0.00  0.00  0.00  1.00  0.00  0.00  0.00  0.01  0.00
  WS02004405WS02004406    1.00   0.00  0.00  0.00  1.00  0.00  0.00  0.00  0.00  0.00
  WS02004406WS02004407    1.00   0.00  0.05  0.00  0.95  0.00  0.00  0.00  0.00  0.00
  WS02004407WS02004409    1.00   0.05  0.00  0.00  0.94  0.01  0.00  0.00  0.94  0.00
  WS02004409WS02004410    1.00   0.05  0.00  0.00  0.95  0.00  0.00  0.00  0.03  0.00
  WS02004410WS02004411    1.00   0.05  0.00  0.00  0.95  0.00  0.00  0.00  0.01  0.00
  WS02004411WS02004412    1.00   0.05  0.00  0.00  0.95  0.00  0.00  0.00  0.00  0.00
  WS02004412WS02004413    1.00   0.05  0.00  0.00  0.94  0.00  0.00  0.00  0.01  0.00
  WS02004413WS02003067    1.00   0.06  0.04  0.00  0.00  0.00  0.90  0.00  0.00  0.00
  WS02006109WS02006110    1.00   0.00  0.01  0.00  0.98  0.00  0.01  0.00  0.00  0.00
  WS02006110WS02006113    1.00   0.01  0.01  0.00  0.98  0.00  0.00  0.00  0.00  0.00
  WS02006111WS02006112    1.00   0.02  0.00  0.00  0.98  0.00  0.00  0.00  0.98  0.00
  WS02006112WS02006115    1.00   0.02  0.00  0.00  0.97  0.00  0.00  0.00  0.00  0.00
  WS02006113WS02006111    1.00   0.02  0.00  0.00  0.00  0.98  0.00  0.00  0.17  0.00
  WS02006115WS02006116    1.00   0.02  0.00  0.00  0.97  0.00  0.00  0.01  0.00  0.00
  WS02006116WS02004401    1.00   0.02  0.00  0.00  0.98  0.00  0.00  0.00  0.00  0.00
  WS02006228WS02006109    1.00   0.00  0.00  0.00  1.00  0.00  0.00  0.00  0.00  0.00
  WS02006229WS02006228    1.00   0.00  0.00  0.00  0.99  0.00  0.00  0.01  0.00  0.00
  WS02006230WS02006229    1.00   0.00  0.00  0.00  0.99  0.00  0.00  0.01  0.00  0.00
  WS02006231WS02006230    1.00   0.00  0.00  0.00  0.31  0.00  0.68  0.00  0.00  0.00
  WS02006232WS02006231    1.00   0.00  0.00  0.00  0.99  0.00  0.01  0.00  0.00  0.00
  WS02006234WS02006232    1.00   0.00  0.00  0.00  1.00  0.00  0.00  0.00  0.13  0.00
  WS02006235WS02006234    1.00   0.00  0.00  0.00  0.82  0.00  0.17  0.00  0.00  0.00
  WS02006238WS02006235    1.00   0.00  0.00  0.00  1.00  0.00  0.00  0.00  0.00  0.00
  WS02006239WS02006238    1.00   0.00  0.00  0.00  1.00  0.00  0.00  0.00  0.24  0.00
  WS02006240WS02006239    1.00   0.00  0.00  0.00  0.68  0.00  0.00  0.32  0.01  0.00
  WS02006242WS02006240    1.00   0.00  0.00  0.00  0.99  0.00  0.01  0.00  0.00  0.00
  WS02006243WS02006242    1.00   0.00  0.00  0.00  0.99  0.00  0.00  0.01  0.37  0.00
  WS02006245WS02006243    1.00   0.00  0.00  0.00  0.77  0.00  0.00  0.23  0.00  0.00
  WS02006247WS02006245    1.00   0.00  0.00  0.00  0.99  0.00  0.00  0.01  0.00  0.00
  WS02006248WS02006247    1.00   0.00  0.00  0.00  0.99  0.00  0.00  0.01  0.18  0.00
  WS02006249WS02006248    1.00   0.00  0.00  0.00  0.63  0.00  0.37  0.00  0.00  0.00
  WS02006251WS02006249    1.00   0.00  0.00  0.00  1.00  0.00  0.00  0.00  0.38  0.00
  WS02006252WS02006251    1.00   0.00  0.41  0.00  0.15  0.00  0.44  0.00  0.01  0.00
  WS02006256WS02006235    1.00   0.00  0.00  0.00  1.00  0.00  0.00  0.00  0.00  0.00
  WSF200WS02003060        1.00   0.00  0.12  0.00  0.22  0.65  0.00  0.00  0.36  0.00
  YS02001580YS02001583    1.00   0.22  0.54  0.00  0.24  0.00  0.00  0.00  0.63  0.00
  YS02001583YS02001586    1.00   0.40  0.30  0.00  0.30  0.00  0.00  0.00  0.63  0.00
  YS02001586YS02001590    1.00   0.13  0.00  0.00  0.46  0.04  0.00  0.38  0.34  0.00
  YS02001590YS02001593    1.00   0.13  0.01  0.00  0.17  0.00  0.70  0.00  0.00  0.00
  YS02001593YS02001596    1.00   0.13  0.00  0.00  0.19  0.01  0.00  0.67  0.02  0.00
  YS02001596YS02001600    1.00   0.13  0.00  0.00  0.24  0.01  0.00  0.62  0.04  0.00
  YS02001600YS02001601    1.00   0.13  0.01  0.00  0.86  0.00  0.00  0.00  0.57  0.00
  YS02001601YS02001602    1.00   0.13  0.01  0.00  0.87  0.00  0.00  0.00  0.00  0.00
  YS02001602YS02001605    1.00   0.13  0.00  0.00  0.87  0.00  0.00  0.00  0.00  0.00
  YS02001605YS02001607    1.00   0.13  0.00  0.00  0.87  0.00  0.00  0.00  0.00  0.00
  YS02001607YS02001610    1.00   0.13  0.00  0.00  0.86  0.00  0.00  0.00  0.01  0.00
  YS02001610YS02001613    1.00   0.13  0.00  0.00  0.87  0.00  0.00  0.00  0.00  0.00
  YS02001613YS02001616    1.00   0.13  0.00  0.00  0.87  0.00  0.00  0.00  0.00  0.00
  YS02001616YS02001619    1.00   0.13  0.00  0.00  0.87  0.00  0.00  0.00  0.00  0.00
  YS02001619YS02001622    1.00   0.13  0.00  0.00  0.87  0.00  0.00  0.00  0.27  0.00
  YS02001622YS02001625    1.00   0.13  0.00  0.00  0.87  0.00  0.00  0.00  0.03  0.00
  YS02001625YS02001629    1.00   0.13  0.04  0.00  0.21  0.00  0.62  0.00  0.00  0.00
  YS02001629YS02163301    1.00   0.14  0.01  0.00  0.85  0.00  0.00  0.00  0.00  0.00
  YS02001633YS02163601    1.00   0.00  0.01  0.00  0.99  0.00  0.00  0.00  0.14  0.00
  YS02001641YS02001644    1.00   0.00  0.01  0.00  0.99  0.00  0.00  0.00  0.00  0.00
  YS02001644YS02001647    1.00   0.00  0.16  0.00  0.84  0.00  0.00  0.00  0.00  0.00
  YS02001647YS02001649    1.00   0.00  0.16  0.00  0.59  0.25  0.00  0.00  0.55  0.00
  YS02001649YS02001757    1.00   0.00  0.00  0.00  0.88  0.12  0.00  0.00  0.40  0.00
  YS02001652YS02001649    1.00   0.00  0.00  0.00  0.97  0.03  0.00  0.00  0.70  0.00
  YS02001655YS02001652    1.00   0.00  0.00  0.00  0.24  0.01  0.00  0.76  0.04  0.00
  YS02001658YS02001655    1.00   0.00  0.14  0.00  0.72  0.15  0.00  0.00  0.61  0.00
  YS02001661YS02001658    1.00   0.14  0.00  0.00  0.56  0.31  0.00  0.00  0.64  0.00
  YS02001664YS02001661    1.00   0.13  0.00  0.00  0.79  0.09  0.00  0.00  0.83  0.00
  YS02001745YS02001748    1.00   0.00  0.00  0.00  0.16  0.00  0.00  0.83  0.04  0.00
  YS02001748YS02001751    1.00   0.00  0.00  0.00  0.87  0.13  0.00  0.00  0.72  0.00
  YS02001751YS02001754    1.00   0.00  0.00  0.00  0.22  0.00  0.00  0.78  0.03  0.00
  YS02001754YS02001757    1.00   0.00  0.00  0.00  1.00  0.00  0.00  0.00  0.76  0.00
  YS02001757CaochengTiaoxuchi    1.00   0.00  0.00  0.00  0.97  0.03  0.00  0.00  0.57  0.00
  YS02001759YS02001757    1.00   0.00  0.00  0.00  0.98  0.02  0.00  0.00  0.50  0.00
  YS02001762YS02001759    1.00   0.00  0.00  0.00  1.00  0.00  0.00  0.00  0.04  0.00
  YS02001765YS02001762    1.00   0.00  0.00  0.00  1.00  0.00  0.00  0.00  0.63  0.00
  YS02001767YS02001765    1.00   0.00  0.00  0.00  1.00  0.00  0.00  0.00  0.01  0.00
  YS02001770YS02001767    1.00   0.00  0.00  0.00  1.00  0.00  0.00  0.00  0.00  0.00
  YS02001774YS02001770    1.00   0.00  0.13  0.00  0.71  0.00  0.16  0.00  0.02  0.00
  YS02001779YS02001774    1.00   0.00  0.00  0.00  1.00  0.00  0.00  0.00  0.72  0.00
  YS02001783YS02001784    1.00   0.00  0.16  0.00  0.84  0.00  0.00  0.00  0.54  0.00
  YS02001784YS02001785    1.00   0.00  0.00  0.00  1.00  0.00  0.00  0.00  0.15  0.00
  YS02001786YS02001788    1.00   0.00  0.00  0.00  0.79  0.21  0.00  0.00  0.00  0.00
  YS02001788YS02001790    1.00   0.00  0.00  0.00  0.21  0.79  0.00  0.00  0.78  0.00
  YS02001790YS02001791    1.00   0.00  0.00  0.00  0.01  0.99  0.00  0.00  0.15  0.00
  YS02001791YS02001793    1.00   0.00  0.00  0.00  0.00  1.00  0.00  0.00  0.02  0.00
  YS02001793JiankangQianchi    1.00   0.00  0.00  0.00  0.98  0.02  0.00  0.00  0.92  0.00
  YS02001882YS02001884    1.00   0.14  0.01  0.00  0.85  0.00  0.00  0.00  0.00  0.00
  YS02001884YS02001887    1.00   0.06  0.05  0.00  0.89  0.00  0.00  0.00  0.00  0.00
  YS02001887YS02001890    1.00   0.00  0.00  0.00  0.97  0.00  0.03  0.00  0.00  0.00
  YS02001890YS02001895    1.00   0.00  0.15  0.00  0.85  0.00  0.00  0.00  0.00  0.00
  YS02001895YS02001898    1.00   0.15  0.00  0.00  0.83  0.00  0.01  0.00  0.00  0.00
  YS02001898YS02001901    1.00   0.15  0.00  0.00  0.85  0.00  0.00  0.00  0.01  0.00
  YS02001901YS02001904    1.00   0.15  0.00  0.00  0.85  0.00  0.00  0.00  0.00  0.00
  YS02001904YS02001907    1.00   0.00  0.15  0.00  0.85  0.00  0.00  0.00  0.00  0.00
  YS02001907YS02006553    1.00   0.00  0.02  0.00  0.98  0.00  0.00  0.00  0.00  0.00
  YS02001910YS02001907    1.00   0.00  0.00  0.00  0.97  0.00  0.00  0.03  0.12  0.00
  YS02001915YS02001910    1.00   0.00  0.00  0.00  0.97  0.03  0.00  0.00  0.13  0.00
  YS02001918YS02001915    1.00   0.00  0.01  0.00  0.98  0.02  0.00  0.00  0.70  0.00
  YS02001920YS02001918    1.00   0.00  0.01  0.00  0.99  0.00  0.00  0.00  0.00  0.00
  YS02001923YS02001920    1.00   0.00  0.00  0.00  1.00  0.00  0.00  0.00  0.89  0.00
  YS02001926YS02001923    1.00   0.00  0.07  0.00  0.09  0.00  0.84  0.00  0.00  0.00
  YS02001929YS02001926    1.00   0.00  0.13  0.00  0.87  0.00  0.00  0.00  0.79  0.00
  YS02006553YS02006556    1.00   0.01  0.00  0.00  0.99  0.00  0.00  0.00  0.03  0.00
  YS02006556YS02006558    1.00   0.00  0.00  0.00  1.00  0.00  0.00  0.00  0.00  0.00
  YS02006558YS02006561    1.00   0.16  0.00  0.00  0.08  0.75  0.00  0.00  0.17  0.00
  YS02006561YS02001783    1.00   0.16  0.00  0.00  0.13  0.71  0.00  0.00  0.65  0.00
  YS02163301YS02001633    1.00   0.00  0.14  0.00  0.86  0.00  0.00  0.00  0.00  0.00
  YS02163601YS02164001    1.00   0.00  0.08  0.00  0.92  0.00  0.00  0.00  0.00  0.00
  YS02164001YS02001641    1.00   0.01  0.07  0.00  0.92  0.00  0.00  0.00  0.05  0.00
  
  
  *************************
  Conduit Surcharge Summary
  *************************
  
  ----------------------------------------------------------------------------
                                                           Hours        Hours 
                         --------- Hours Full --------   Above Full   Capacity
  Conduit                Both Ends  Upstream  Dnstream   Normal Flow   Limited
  ----------------------------------------------------------------------------
  WS02003072WS02003073        0.01      0.01      0.01      1.43         0.01
  WS02004403WS02004404        0.01      0.01      0.05      0.01         0.01
  WS02004404WS02004405        0.01      0.05      0.01      4.85         0.01
  WS02004405WS02004406        0.01      0.01      0.01      1.02         0.01
  WS02006109WS02006110        1.02      1.02      2.34      1.12         0.01
  WS02006110WS02006113        0.01      0.01      2.28      0.01         0.01
  WS02006111WS02006112        0.01      0.01      2.76      0.01         0.01
  WS02006112WS02006115        0.01      0.01      1.16      0.01         0.01
  WS02006228WS02006109        2.22      2.34      2.22      3.04         2.22
  WS02006229WS02006228        2.20      2.24      2.20      2.63         2.20
  WS02006230WS02006229        2.45      2.57      2.45      5.13         2.45
  WS02006231WS02006230        1.04      1.04      1.18      4.98         0.01
  WS02006232WS02006231        1.13      1.13      2.35      1.19         0.01
  WS02006234WS02006232        2.12      2.12      2.35      1.18         1.17
  WS02006235WS02006234        1.42      1.42      2.20      4.90         0.02
  WS02006238WS02006235        2.23      2.23      2.36      0.01         0.01
  WS02006239WS02006238        2.25      2.29      2.27      2.46         2.03
  WS02006240WS02006239        2.21      2.24      2.21      2.47         1.86
  WS02006242WS02006240        2.23      2.23      2.35      2.59         0.01
  WS02006243WS02006242        2.26      2.26      2.32      0.01         0.04
  WS02006245WS02006243        2.24      2.25      2.24      1.41         1.38
  WS02006247WS02006245        2.24      2.27      2.24      4.59         2.23
  WS02006248WS02006247        2.24      2.24      2.26      0.01         0.04
  WS02006249WS02006248        2.22      2.23      2.24      4.56         0.01
  WS02006251WS02006249        2.24      2.25      2.24      2.53         2.17
  WS02006252WS02006251        2.58      2.58      2.58      2.58         0.01
  WS02006256WS02006235        4.91      4.94      6.11      1.54         0.01
  YS02001580YS02001583        0.93      0.93      1.01      0.01         0.01
  YS02001583YS02001586        0.94      0.94      1.13      0.01         0.01
  YS02001586YS02001590        1.14      1.14      1.23      0.01         0.01
  YS02001590YS02001593        1.23      1.23      1.26      1.26         0.01
  YS02001593YS02001596        1.25      1.25      1.37      0.01         0.01
  YS02001596YS02001600        1.42      1.42      1.50      0.01         0.01
  YS02001600YS02001601        1.55      1.55      1.78      0.01         0.01
  YS02001601YS02001602        1.69      1.69      1.81      1.50         0.01
  YS02001602YS02001605        1.65      1.65      1.69      2.51         0.01
  YS02001605YS02001607        1.62      1.65      1.62      1.72         1.60
  YS02001607YS02001610        1.25      1.25      1.28      0.01         0.01
  YS02001610YS02001613        1.25      1.25      1.28      0.01         0.01
  YS02001613YS02001616        1.20      1.20      1.25      0.01         0.01
  YS02001616YS02001619        1.18      1.18      1.20      0.12         0.14
  YS02001619YS02001622        1.18      1.18      1.18      1.16         1.04
  YS02001622YS02001625        1.18      1.18      1.36      0.01         0.01
  YS02001625YS02001629        1.11      1.11      1.36      0.01         0.01
  YS02001629YS02163301        1.36      1.36      1.38      0.09         0.14
  YS02001633YS02163601        1.40      1.40      1.43      0.20         0.25
  YS02001641YS02001644        1.32      1.35      1.32      1.84         1.30
  YS02001644YS02001647        1.11      1.11      1.32      0.01         0.01
  YS02001647YS02001649        1.11      1.11      1.24      0.01         0.01
  YS02001649YS02001757        1.24      1.24      1.30      0.12         0.07
  YS02001652YS02001649        1.07      1.07      1.24      0.01         0.01
  YS02001655YS02001652        0.81      0.81      1.04      0.01         0.01
  YS02001658YS02001655        0.46      0.46      0.81      0.01         0.01
  YS02001661YS02001658        0.15      0.15      0.46      0.01         0.01
  YS02001664YS02001661        0.01      0.01      0.20      0.01         0.01
  YS02001745YS02001748        0.01      0.01      0.36      0.01         0.01
  YS02001748YS02001751        0.41      0.41      0.65      0.01         0.01
  YS02001751YS02001754        0.65      0.65      0.96      0.01         0.01
  YS02001754YS02001757        1.01      1.01      1.30      0.01         0.01
  YS02001757CaochengTiaoxuchi        1.30      1.30      2.17      0.51         0.48
  YS02001759YS02001757        1.23      1.23      1.30      0.01         0.01
  YS02001762YS02001759        1.20      1.20      1.23      0.01         0.02
  YS02001765YS02001762        1.16      1.16      1.20      0.01         0.01
  YS02001767YS02001765        1.12      1.13      1.16      0.01         0.02
  YS02001770YS02001767        1.12      1.12      1.13      0.78         0.72
  YS02001774YS02001770        1.10      1.10      1.18      0.01         0.01
  YS02001779YS02001774        0.92      0.92      1.18      0.01         0.01
  YS02001783YS02001784        0.75      0.78      0.75      0.98         0.75
  YS02001784YS02001785        0.62      0.75      0.62      1.32         0.62
  YS02001786YS02001788        0.01      0.62      0.01      1.13         0.01
  YS02001790YS02001791        0.01      0.01      0.01      0.73         0.01
  YS02001793JiankangQianchi        0.01      0.01      7.53      0.01         0.01
  YS02001882YS02001884        0.71      0.71      0.72      0.01         0.01
  YS02001884YS02001887        0.75      0.75      0.77      0.01         0.01
  YS02001887YS02001890        0.79      0.79      0.80      0.21         0.01
  YS02001890YS02001895        0.70      0.70      0.82      0.01         0.01
  YS02001895YS02001898        0.69      0.69      0.70      0.01         0.01
  YS02001898YS02001901        0.70      0.70      0.75      0.01         0.01
  YS02001901YS02001904        0.74      0.74      0.75      0.01         0.01
  YS02001904YS02001907        0.74      0.74      1.10      0.01         0.01
  YS02001907YS02006553        1.35      1.35      1.44      0.01         0.01
  YS02001910YS02001907        0.82      0.82      1.07      0.08         0.09
  YS02001915YS02001910        0.71      0.71      0.82      0.01         0.01
  YS02001918YS02001915        0.60      0.60      0.71      0.01         0.01
  YS02001920YS02001918        0.60      0.60      0.62      0.01         0.01
  YS02001923YS02001920        0.55      0.55      0.62      0.01         0.01
  YS02001926YS02001923        0.23      0.23      0.28      0.01         0.01
  YS02001929YS02001926        0.11      0.11      0.28      0.01         0.01
  YS02006553YS02006556        0.94      0.94      1.10      0.01         0.01
  YS02006556YS02006558        1.02      1.02      1.13      0.01         0.01
  YS02006558YS02006561        0.65      0.92      0.65      1.25         0.65
  YS02006561YS02001783        0.57      0.57      0.78      0.01         0.01
  YS02163301YS02001633        1.38      1.38      1.41      0.01         0.01
  YS02163601YS02164001        1.35      1.35      1.43      0.10         0.01
  YS02164001YS02001641        1.35      1.35      1.35      0.84         0.79
  
  
  ***************
  Pumping Summary
  ***************
  
  ---------------------------------------------------------------------------------------------------------
                                                  Min       Avg       Max     Total     Power    % Time Off
                        Percent   Number of      Flow      Flow      Flow    Volume     Usage    Pump Curve
  Pump                 Utilized   Start-Ups       LPS       LPS       LPS  10^6 ltr     Kw-hr    Low   High
  ---------------------------------------------------------------------------------------------------------
  CC-R1                   22.62           3      0.00    683.00    683.00     4.450     85.60    0.0    8.3
  CC-R2                   21.69           3      0.00    683.00    683.00     4.266     82.11    0.0   13.2
  CC-S1                   53.68           9      0.00    200.00    200.00     3.092     17.65    0.0    0.0
  CC-S2                   36.42           7      0.00    200.00    200.00     2.098     11.71    0.0    0.0
  JK-R1                    9.52          18      0.00   1000.00   1000.00     2.741     32.65    0.0    0.0
  JK-R2                    3.10           9      0.00   1000.00   1000.00     0.892      7.67    0.0    0.0
  JK-S                    19.17          12      0.00    300.00    300.00     1.657     24.41    0.0    0.0
  

  Analysis begun on:  Wed Apr 23 23:59:03 2025
  Analysis ended on:  Wed Apr 23 23:59:04 2025
  Total elapsed time: 00:00:01