
  EPA STORM WATER MANAGEMENT MODEL - VERSION 5.2 (Build 5.2.4)
  PYSWMM TOOLKIT API - VERSION v1.0 (2023-11-27)
  ------------------------------------------------------------

  
  ****************
  Analysis Options
  ****************
  Flow Units ............... CMS
  Process Models:
    Rainfall/Runoff ........ YES
    RDII ................... NO
    Snowmelt ............... NO
    Groundwater ............ NO
    Flow Routing ........... YES
    Ponding Allowed ........ YES
    Water Quality .......... NO
  Infiltration Method ...... HORTON
  Flow Routing Method ...... DYNWAVE
  Surcharge Method ......... EXTRAN
  Starting Date ............ 01/01/2000 08:00:00
  Ending Date .............. 01/01/2000 16:00:00
  Antecedent Dry Days ...... 0.0
  Report Time Step ......... 00:05:00
  Wet Time Step ............ 00:05:00
  Dry Time Step ............ 00:05:00
  Routing Time Step ........ 30.00 sec
  Variable Time Step ....... YES
  Maximum Trials ........... 8
  Number of Threads ........ 1
  Head Tolerance ........... 0.001500 m
  
  
  **************************        Volume         Depth
  Runoff Quantity Continuity     hectare-m            mm
  **************************     ---------       -------
  Total Precipitation ......         3.244        18.002
  Evaporation Loss .........         0.000         0.000
  Infiltration Loss ........         0.000         0.000
  Surface Runoff ...........         3.282        18.211
  Final Storage ............         0.021         0.118
  Continuity Error (%) .....        -1.817
  
  
  **************************        Volume        Volume
  Flow Routing Continuity        hectare-m      10^6 ltr
  **************************     ---------     ---------
  Dry Weather Inflow .......         0.399         3.989
  Wet Weather Inflow .......         3.281        32.815
  Groundwater Inflow .......         0.000         0.000
  RDII Inflow ..............         0.000         0.000
  External Inflow ..........         0.000         0.000
  External Outflow .........         0.646         6.463
  Flooding Loss ............         2.043        20.433
  Evaporation Loss .........         0.000         0.000
  Exfiltration Loss ........         0.000         0.000
  Initial Stored Volume ....         0.000         0.000
  Final Stored Volume ......         0.745         7.451
  Continuity Error (%) .....         6.674
  
  
  *************************
  Highest Continuity Errors
  *************************
  Node T6 (15.77%)
  Node T5 (14.65%)
  Node T2 (13.49%)
  Node T4 (11.70%)
  Node T3 (11.40%)
  
  
  ***************************
  Time-Step Critical Elements
  ***************************
  Link C15 (47.23%)
  
  
  ********************************
  Highest Flow Instability Indexes
  ********************************
  Link C13 (9)
  Link C5 (5)
  Link C6 (3)
  Link V3 (3)
  Link C3 (2)
  
  
  *********************************
  Most Frequent Nonconverging Nodes
  *********************************
  Node Out_to_WWTP (5.86%)
  Node CSO7 (4.02%)
  Node J4 (3.61%)
  Node CSO9 (1.20%)
  Node CSO10 (0.48%)
  
  
  *************************
  Routing Time Step Summary
  *************************
  Minimum Time Step           :     0.05 sec
  Average Time Step           :    22.89 sec
  Maximum Time Step           :    30.00 sec
  % of Time in Steady State   :     0.00
  Average Iterations per Step :     3.24
  % of Steps Not Converging   :     5.86
  Time Step Frequencies       :
     30.000 - 13.228 sec      :    69.48 %
     13.228 -  5.833 sec      :    30.11 %
      5.833 -  2.572 sec      :     0.32 %
      2.572 -  1.134 sec      :     0.08 %
      1.134 -  0.500 sec      :     0.00 %
  
  
  ***************************
  Subcatchment Runoff Summary
  ***************************
  
  ------------------------------------------------------------------------------------------------------------------------------
                            Total      Total      Total      Total     Imperv       Perv      Total       Total     Peak  Runoff
                           Precip      Runon       Evap      Infil     Runoff     Runoff     Runoff      Runoff   Runoff   Coeff
  Subcatchment                 mm         mm         mm         mm         mm         mm         mm    10^6 ltr      CMS
  ------------------------------------------------------------------------------------------------------------------------------
  SC01                      13.03       0.00       0.00       0.00      13.16       0.00      13.16        4.34     2.51   1.010
  SC02                      24.70       0.00       0.00       0.00      25.12       0.00      25.12        5.71     3.04   1.017
  SC03                      28.05       0.00       0.00       0.00      28.90       0.00      28.90        5.20     2.29   1.030
  SC04                      24.70       0.00       0.00       0.00      24.78       0.00      24.78        1.71     0.58   1.003
  SC05                      13.03       0.00       0.00       0.00      13.14       0.00      13.14        2.05     1.16   1.008
  SC06                       8.05       0.00       0.00       0.00       7.88       0.00       7.88        2.57     0.82   0.979
  SC07                      24.70       0.00       0.00       0.00      24.78       0.00      24.78        1.18     0.40   1.003
  SC08                      28.05       0.00       0.00       0.00      28.45       0.00      28.45        7.97     3.01   1.014
  SC09                       8.05       0.00       0.00       0.00       7.99       0.00       7.99        0.55     0.21   0.992
  SC010                     13.03       0.00       0.00       0.00      13.08       0.00      13.08        1.54     0.80   1.004
  
  
  ******************
  Node Depth Summary
  ******************
  
  ---------------------------------------------------------------------------------
                                 Average  Maximum  Maximum  Time of Max    Reported
                                   Depth    Depth      HGL   Occurrence   Max Depth
  Node                 Type       Meters   Meters   Meters  days hr:min      Meters
  ---------------------------------------------------------------------------------
  J1                   JUNCTION     0.10     0.36    34.36     0  02:25        0.36
  J3                   JUNCTION     0.13     0.16    18.16     0  04:34        0.16
  CSO7                 JUNCTION     0.50     1.20    35.20     0  01:07        1.20
  J5                   JUNCTION     0.11     0.27    32.27     0  01:15        0.26
  CSO9                 JUNCTION     0.36     2.00    42.00     0  01:13        2.00
  J8                   JUNCTION     0.13     0.32    36.32     0  01:45        0.32
  CSO8                 JUNCTION     0.76     2.00    34.00     0  01:01        2.00
  J10                  JUNCTION     0.17     0.50    29.50     0  01:26        0.49
  J13                  JUNCTION     0.12     0.45    29.45     0  01:15        0.44
  J15                  JUNCTION     0.23     0.57    15.57     0  02:26        0.54
  J16                  JUNCTION     0.10     0.38    30.38     0  02:25        0.38
  CSO10                JUNCTION     0.29     1.00    31.00     0  01:12        1.00
  J12                  JUNCTION     0.74     1.19    27.19     0  02:16        1.16
  J4                   JUNCTION     0.30     0.76    33.76     0  02:14        0.75
  J6                   JUNCTION     0.07     0.12    25.12     0  04:30        0.12
  J2                   JUNCTION     0.07     0.08    25.08     0  03:30        0.08
  J19                  JUNCTION     0.15     0.17     8.17     0  01:46        0.17
  J9                   JUNCTION     0.10     0.15    29.15     0  04:40        0.15
  J14                  JUNCTION     0.14     0.19    20.19     0  04:42        0.19
  J17                  JUNCTION     0.08     0.15    20.15     0  01:45        0.15
  J7                   JUNCTION     0.10     0.23    39.23     0  01:52        0.23
  J11                  JUNCTION     0.16     0.30    31.30     0  01:51        0.30
  J18                  JUNCTION     0.08     0.16    29.16     0  02:38        0.16
  Out_to_WWTP          OUTFALL      0.15     0.17     6.17     0  01:45        0.17
  T5                   STORAGE      3.61     5.00    32.00     0  02:19        5.00
  T4                   STORAGE      3.99     5.00    32.00     0  01:40        5.00
  T6                   STORAGE      3.80     5.00    36.00     0  01:49        5.00
  T3                   STORAGE      4.02     5.00    27.00     0  01:54        5.00
  T2                   STORAGE      4.14     5.00    26.00     0  01:25        5.00
  T1                   STORAGE      4.04     5.00    15.00     0  01:44        5.00
  
  
  *******************
  Node Inflow Summary
  *******************
  
  -------------------------------------------------------------------------------------------------
                                  Maximum  Maximum                  Lateral       Total        Flow
                                  Lateral    Total  Time of Max      Inflow      Inflow     Balance
                                   Inflow   Inflow   Occurrence      Volume      Volume       Error
  Node                 Type           CMS      CMS  days hr:min    10^6 ltr    10^6 ltr     Percent
  -------------------------------------------------------------------------------------------------
  J1                   JUNCTION     1.176    1.176     0  02:25        2.62        2.62      -0.019
  J3                   JUNCTION     0.000    0.268     0  04:32           0        5.26       0.870
  CSO7                 JUNCTION     0.413    0.413     0  01:15        1.47        1.47       0.035
  J5                   JUNCTION     0.589    0.665     0  01:15        1.84        2.64       0.021
  CSO9                 JUNCTION     0.211    0.211     0  01:45       0.749       0.749       0.054
  J8                   JUNCTION     0.851    0.977     0  01:45        3.52         4.2       0.030
  CSO8                 JUNCTION     3.021    3.021     0  01:30        8.26        8.26      -0.036
  J10                  JUNCTION     2.307    2.793     0  01:25        5.58        9.18      -0.065
  J13                  JUNCTION     3.057    3.057     0  01:15        6.19        6.19      -0.211
  J15                  JUNCTION     0.000    2.928     0  02:25           0        12.4       0.835
  J16                  JUNCTION     2.534    2.534     0  02:25         4.9         4.9      -0.098
  CSO10                JUNCTION     0.807    0.807     0  02:25        1.68        1.68      -0.060
  J12                  JUNCTION     0.000    2.819     0  01:26           0        11.2       2.638
  J4                   JUNCTION     0.000    0.085     0  01:10           0       0.802       0.402
  J6                   JUNCTION     0.000    0.080     0  04:25           0       0.688       0.559
  J2                   JUNCTION     0.000    0.039     0  02:19           0       0.905       0.575
  J19                  JUNCTION     0.000    0.271     0  01:45           0        6.48       0.194
  J9                   JUNCTION     0.000    0.175     0  04:35           0        1.84       1.021
  J14                  JUNCTION     0.000    0.190     0  04:45           0        3.69       0.259
  J17                  JUNCTION     0.000    0.140     0  01:25           0        1.05       0.605
  J7                   JUNCTION     0.000    0.127     0  01:52           0        0.69       0.455
  J11                  JUNCTION     0.000    0.487     0  01:51           0         3.6       0.250
  J18                  JUNCTION     0.000    0.202     0  02:38           0        1.27       0.025
  Out_to_WWTP          OUTFALL      0.000    0.271     0  01:46           0        6.46       0.000
  T5                   STORAGE      0.000    1.162     0  02:25           0        2.62      17.168
  T4                   STORAGE      0.000    0.654     0  01:15           0        2.64      13.248
  T6                   STORAGE      0.000    0.968     0  01:45           0         4.2      18.725
  T3                   STORAGE      0.000    3.246     0  02:18           0        10.9      12.863
  T2                   STORAGE      0.000    3.019     0  01:15           0         6.2      15.593
  T1                   STORAGE      0.000    2.620     0  02:27           0        12.3       7.119
  
  
  **********************
  Node Surcharge Summary
  **********************
  
  Surcharging occurs when water rises above the top of the highest conduit.
  ---------------------------------------------------------------------
                                               Max. Height   Min. Depth
                                   Hours       Above Crown    Below Rim
  Node                 Type      Surcharged         Meters       Meters
  ---------------------------------------------------------------------
  CSO7                 JUNCTION        1.83          0.945        0.000
  CSO9                 JUNCTION        0.81          1.682        0.000
  CSO8                 JUNCTION        1.74          1.547        0.000
  CSO10                JUNCTION        0.90          0.560        0.000
  J4                   JUNCTION        1.77          0.462        1.238
  
  
  *********************
  Node Flooding Summary
  *********************
  
  Flooding refers to all water that overflows a node, whether it ponds or not.
  --------------------------------------------------------------------------
                                                             Total   Maximum
                                 Maximum   Time of Max       Flood    Ponded
                        Hours       Rate    Occurrence      Volume     Depth
  Node                 Flooded       CMS   days hr:min    10^6 ltr    Meters
  --------------------------------------------------------------------------
  CSO7                    1.57     0.335      0  01:15       0.668     0.000
  CSO9                    0.45     0.084      0  01:45       0.059     0.000
  CSO8                    1.33     2.532      0  01:30       4.654     0.000
  CSO10                   0.69     0.601      0  02:25       0.407     0.000
  T5                      1.23     1.120      0  02:25       0.939     0.000
  T4                      2.75     0.454      0  02:22       1.212     0.000
  T6                      2.51     0.780      0  01:49       1.229     0.000
  T3                      1.80     3.120      0  02:19       3.480     0.000
  T2                      2.48     1.937      0  02:20       3.440     0.000
  T1                      6.11     2.349      0  02:27       4.339     0.000
  
  
  **********************
  Storage Volume Summary
  **********************
  
  ------------------------------------------------------------------------------------------------
                         Average    Avg   Evap  Exfil     Maximum    Max    Time of Max    Maximum
                          Volume   Pcnt   Pcnt   Pcnt      Volume   Pcnt     Occurrence    Outflow
  Storage Unit           1000 m³   Full   Loss   Loss     1000 m³   Full    days hr:min        CMS
  ------------------------------------------------------------------------------------------------
  T5                       0.361   72.3    0.0    0.0       0.500  100.0       0  02:19      0.039
  T4                       0.399   79.8    0.0    0.0       0.500  100.0       0  01:40      0.080
  T6                       0.456   76.1    0.0    0.0       0.600  100.0       0  01:49      0.175
  T3                       2.090   80.4    0.0    0.0       2.600  100.0       0  01:54      0.739
  T2                       0.828   82.8    0.0    0.0       1.000  100.0       0  01:25      0.140
  T1                       0.565   80.8    0.0    0.0       0.700  100.0       0  01:44      0.271
  
  
  ***********************
  Outfall Loading Summary
  ***********************
  
  -----------------------------------------------------------
                         Flow       Avg       Max       Total
                         Freq      Flow      Flow      Volume
  Outfall Node           Pcnt       CMS       CMS    10^6 ltr
  -----------------------------------------------------------
  Out_to_WWTP           99.12     0.228     0.271       6.463
  -----------------------------------------------------------
  System                99.12     0.228     0.271       6.463
  
  
  ********************
  Link Flow Summary
  ********************
  
  -----------------------------------------------------------------------------
                                 Maximum  Time of Max   Maximum    Max/    Max/
                                  |Flow|   Occurrence   |Veloc|    Full    Full
  Link                 Type          CMS  days hr:min     m/sec    Flow   Depth
  -----------------------------------------------------------------------------
  C1                   CONDUIT     0.039     0  03:07      0.92    0.01    0.12
  C6                   CONDUIT     0.076     0  01:15      1.29    1.21    0.95
  C2                   CONDUIT     0.079     0  04:30      1.64    0.09    0.23
  C9                   CONDUIT     0.127     0  01:52      1.34    0.43    0.55
  C16                  CONDUIT     0.488     0  02:11      1.85    0.05    0.20
  C3                   CONDUIT     0.191     0  04:43      2.15    0.07    0.17
  C19                  CONDUIT     0.140     0  01:45      1.48    0.05    0.32
  C11                  CONDUIT     0.259     0  04:34      1.93    0.01    0.18
  C20                  CONDUIT     2.502     0  02:25      4.50    0.08    0.23
  C22                  CONDUIT     0.202     0  02:39      1.65    0.09    0.46
  C12                  CONDUIT     0.154     0  04:40      0.76    0.01    0.33
  C17                  CONDUIT     2.780     0  01:26      4.63    0.14    0.41
  C10                  CONDUIT     0.968     0  01:45      1.66    0.10    0.61
  C13                  CONDUIT     3.246     0  02:18      3.72    0.19    0.80
  C18                  CONDUIT     3.019     0  01:15      3.36    0.11    0.61
  C23                  CONDUIT     2.620     0  02:27      2.02    0.29    0.69
  C4                   CONDUIT     1.162     0  02:25      3.06    0.28    0.68
  C7                   CONDUIT     0.654     0  01:15      1.59    0.16    0.64
  C14                  CONDUIT     0.271     0  01:46      2.08    0.02    0.09
  C5                   CONDUIT     0.085     0  01:10      1.78    1.45    1.00
  C8                   CONDUIT     0.127     0  01:52      1.80    1.60    0.86
  C15                  CONDUIT     0.487     0  01:51      4.01    1.55    0.83
  C21                  CONDUIT     0.202     0  02:38      1.86    1.16    0.69
  V4                   ORIFICE     0.080     0  04:25                      1.00
  V5                   ORIFICE     0.039     0  02:19                      1.00
  V1                   ORIFICE     0.271     0  01:45                      1.00
  V6                   ORIFICE     0.175     0  04:35                      1.00
  V3                   ORIFICE     0.190     0  04:45                      1.00
  V2                   ORIFICE     0.140     0  01:25                      1.00
  
  
  ***************************
  Flow Classification Summary
  ***************************
  
  -------------------------------------------------------------------------------------
                      Adjusted    ---------- Fraction of Time in Flow Class ---------- 
                       /Actual         Up    Down  Sub   Sup   Up    Down  Norm  Inlet 
  Conduit               Length    Dry  Dry   Dry   Crit  Crit  Crit  Crit  Ltd   Ctrl  
  -------------------------------------------------------------------------------------
  C1                      1.00   0.00  0.00  0.00  0.61  0.39  0.00  0.00  0.95  0.00
  C6                      1.00   0.00  0.00  0.00  0.25  0.75  0.00  0.00  0.00  0.00
  C2                      1.00   0.00  0.00  0.00  0.76  0.23  0.00  0.00  0.98  0.00
  C9                      1.00   0.00  0.00  0.00  1.00  0.00  0.00  0.00  1.00  0.00
  C16                     1.00   0.00  0.00  0.00  0.64  0.36  0.00  0.00  0.57  0.00
  C3                      1.00   0.00  0.01  0.00  0.05  0.95  0.00  0.00  0.07  0.00
  C19                     1.00   0.00  0.00  0.00  0.98  0.02  0.00  0.00  1.00  0.00
  C11                     1.00   0.00  0.00  0.00  0.27  0.73  0.00  0.00  1.00  0.00
  C20                     1.00   0.00  0.00  0.00  0.61  0.39  0.00  0.00  0.97  0.00
  C22                     1.00   0.00  0.00  0.00  0.85  0.15  0.00  0.00  1.00  0.00
  C12                     1.00   0.00  0.00  0.00  0.96  0.04  0.00  0.00  1.00  0.00
  C17                     1.00   0.00  0.00  0.00  0.79  0.21  0.00  0.00  0.95  0.00
  C10                     1.00   0.00  0.00  0.00  0.94  0.06  0.00  0.00  0.98  0.00
  C13                     1.00   0.00  0.00  0.00  0.87  0.13  0.00  0.00  0.10  0.00
  C18                     1.00   0.00  0.00  0.00  0.93  0.07  0.00  0.00  0.97  0.00
  C23                     1.00   0.00  0.00  0.00  0.87  0.13  0.00  0.00  0.94  0.00
  C4                      1.00   0.00  0.00  0.00  0.96  0.04  0.00  0.00  0.98  0.00
  C7                      1.00   0.00  0.00  0.00  0.93  0.07  0.00  0.00  0.97  0.00
  C14                     1.00   0.00  0.01  0.00  0.01  0.98  0.00  0.00  0.00  0.00
  C5                      1.00   0.00  0.00  0.00  0.95  0.05  0.00  0.00  0.75  0.00
  C8                      1.00   0.00  0.00  0.00  0.10  0.90  0.00  0.00  0.00  0.00
  C15                     1.00   0.00  0.00  0.00  0.00  1.00  0.00  0.00  0.00  0.00
  C21                     1.00   0.00  0.00  0.00  0.02  0.98  0.00  0.00  0.00  0.00
  
  
  *************************
  Conduit Surcharge Summary
  *************************
  
  ----------------------------------------------------------------------------
                                                           Hours        Hours 
                         --------- Hours Full --------   Above Full   Capacity
  Conduit                Both Ends  Upstream  Dnstream   Normal Flow   Limited
  ----------------------------------------------------------------------------
  C6                          0.01      1.77      0.01      1.68         0.01
  C10                         0.01      0.01      6.52      0.01         0.01
  C13                         0.01      0.01      6.59      0.01         0.01
  C18                         0.01      0.01      6.67      0.01         0.01
  C23                         0.01      0.01      6.58      0.01         0.01
  C4                          0.01      0.01      6.63      0.01         0.01
  C7                          0.01      0.01      6.66      0.01         0.01
  C5                          1.77      1.83      1.87      1.82         1.75
  C8                          0.01      0.81      0.01      0.84         0.01
  C15                         0.01      1.74      0.01      1.75         0.01
  C21                         0.01      0.90      0.01      0.84         0.01
  

  Analysis begun on:  Fri Oct 18 10:07:28 2024
  Analysis ended on:  Fri Oct 18 10:07:28 2024
  Total elapsed time: < 1 sec