
  EPA STORM WATER MANAGEMENT MODEL - VERSION 5.2 (Build 5.2.4)
  PYSWMM TOOLKIT API - VERSION v1.0 (2023-11-27)
  ------------------------------------------------------------

  
  ****************
  Analysis Options
  ****************
  Flow Units ............... CMS
  Process Models:
    Rainfall/Runoff ........ YES
    RDII ................... NO
    Snowmelt ............... NO
    Groundwater ............ NO
    Flow Routing ........... YES
    Ponding Allowed ........ YES
    Water Quality .......... NO
  Infiltration Method ...... HORTON
  Flow Routing Method ...... DYNWAVE
  Surcharge Method ......... EXTRAN
  Starting Date ............ 01/01/2000 08:00:00
  Ending Date .............. 01/01/2000 16:00:00
  Antecedent Dry Days ...... 0.0
  Report Time Step ......... 00:05:00
  Wet Time Step ............ 00:05:00
  Dry Time Step ............ 00:05:00
  Routing Time Step ........ 30.00 sec
  Variable Time Step ....... YES
  Maximum Trials ........... 8
  Number of Threads ........ 1
  Head Tolerance ........... 0.001500 m
  
  
  **************************        Volume         Depth
  Runoff Quantity Continuity     hectare-m            mm
  **************************     ---------       -------
  Total Precipitation ......         3.755        20.837
  Evaporation Loss .........         0.000         0.000
  Infiltration Loss ........         0.000         0.000
  Surface Runoff ...........         3.774        20.944
  Final Storage ............         0.022         0.123
  Continuity Error (%) .....        -1.105
  
  
  **************************        Volume        Volume
  Flow Routing Continuity        hectare-m      10^6 ltr
  **************************     ---------     ---------
  Dry Weather Inflow .......         0.399         3.989
  Wet Weather Inflow .......         3.774        37.744
  Groundwater Inflow .......         0.000         0.000
  RDII Inflow ..............         0.000         0.000
  External Inflow ..........         0.000         0.000
  External Outflow .........         0.604         6.045
  Flooding Loss ............         2.582        25.823
  Evaporation Loss .........         0.000         0.000
  Exfiltration Loss ........         0.000         0.000
  Initial Stored Volume ....         0.000         0.000
  Final Stored Volume ......         0.750         7.504
  Continuity Error (%) .....         5.657
  
  
  *************************
  Highest Continuity Errors
  *************************
  Node T2 (29.23%)
  Node T4 (21.20%)
  Node T3 (16.43%)
  Node T6 (9.98%)
  Node T5 (6.09%)
  
  
  ***************************
  Time-Step Critical Elements
  ***************************
  Link C15 (37.79%)
  
  
  ********************************
  Highest Flow Instability Indexes
  ********************************
  Link C13 (9)
  Link C5 (2)
  Link V3 (2)
  Link C3 (2)
  Link C23 (2)
  
  
  *********************************
  Most Frequent Nonconverging Nodes
  *********************************
  Node Out_to_WWTP (4.06%)
  Node CSO7 (1.90%)
  Node J4 (1.55%)
  Node J15 (0.69%)
  Node CSO9 (0.52%)
  
  
  *************************
  Routing Time Step Summary
  *************************
  Minimum Time Step           :     0.32 sec
  Average Time Step           :    24.59 sec
  Maximum Time Step           :    30.00 sec
  % of Time in Steady State   :     0.00
  Average Iterations per Step :     2.72
  % of Steps Not Converging   :     4.06
  Time Step Frequencies       :
     30.000 - 13.228 sec      :    75.37 %
     13.228 -  5.833 sec      :    24.20 %
      5.833 -  2.572 sec      :     0.35 %
      2.572 -  1.134 sec      :     0.00 %
      1.134 -  0.500 sec      :     0.09 %
  
  
  ***************************
  Subcatchment Runoff Summary
  ***************************
  
  ------------------------------------------------------------------------------------------------------------------------------
                            Total      Total      Total      Total     Imperv       Perv      Total       Total     Peak  Runoff
                           Precip      Runon       Evap      Infil     Runoff     Runoff     Runoff      Runoff   Runoff   Coeff
  Subcatchment                 mm         mm         mm         mm         mm         mm         mm    10^6 ltr      CMS
  ------------------------------------------------------------------------------------------------------------------------------
  SC01                      33.83       0.00       0.00       0.00      34.18       0.00      34.18       11.28    10.59   1.010
  SC02                      10.64       0.00       0.00       0.00      10.66       0.00      10.66        2.43     1.24   1.002
  SC03                      15.94       0.00       0.00       0.00      16.06       0.00      16.06        2.89     1.20   1.008
  SC04                      10.64       0.00       0.00       0.00      10.52       0.00      10.52        0.73     0.27   0.989
  SC05                      33.83       0.00       0.00       0.00      34.17       0.00      34.17        5.33     4.96   1.010
  SC06                      15.56       0.00       0.00       0.00      15.47       0.00      15.47        5.04     2.95   0.994
  SC07                      10.64       0.00       0.00       0.00      10.52       0.00      10.52        0.50     0.19   0.989
  SC08                      15.94       0.00       0.00       0.00      15.94       0.00      15.94        4.46     1.51   1.000
  SC09                      15.56       0.00       0.00       0.00      15.64       0.00      15.64        1.08     0.83   1.005
  SC010                     33.83       0.00       0.00       0.00      34.12       0.00      34.12        4.01     3.60   1.009
  
  
  ******************
  Node Depth Summary
  ******************
  
  ---------------------------------------------------------------------------------
                                 Average  Maximum  Maximum  Time of Max    Reported
                                   Depth    Depth      HGL   Occurrence   Max Depth
  Node                 Type       Meters   Meters   Meters  days hr:min      Meters
  ---------------------------------------------------------------------------------
  J1                   JUNCTION     0.33     7.00    41.00     0  02:08        7.00
  J3                   JUNCTION     0.12     0.16    18.16     0  04:59        0.16
  CSO7                 JUNCTION     0.33     1.20    35.20     0  01:55        1.20
  J5                   JUNCTION     0.08     0.20    32.20     0  02:20        0.19
  CSO9                 JUNCTION     0.39     2.00    42.00     0  02:00        2.00
  J8                   JUNCTION     0.15     0.58    36.58     0  02:10        0.57
  CSO8                 JUNCTION     0.57     2.00    34.00     0  01:45        2.00
  J10                  JUNCTION     0.14     0.39    29.39     0  01:55        0.39
  J13                  JUNCTION     0.08     0.29    29.29     0  02:00        0.29
  J15                  JUNCTION     0.36     3.00    18.00     0  02:07        3.00
  J16                  JUNCTION     0.12     0.79    30.79     0  02:10        0.79
  CSO10                JUNCTION     0.27     1.00    31.00     0  01:48        1.00
  J12                  JUNCTION     0.61     1.04    27.04     0  02:58        1.04
  J4                   JUNCTION     0.23     0.99    33.99     0  01:57        0.75
  J6                   JUNCTION     0.06     0.12    25.12     0  04:55        0.12
  J2                   JUNCTION     0.07     0.08    25.08     0  03:15        0.08
  J19                  JUNCTION     0.15     0.17     8.17     0  02:03        0.17
  J9                   JUNCTION     0.10     0.16    29.16     0  02:35        0.16
  J14                  JUNCTION     0.14     0.19    20.19     0  04:42        0.19
  J17                  JUNCTION     0.06     0.15    20.15     0  05:30        0.15
  J7                   JUNCTION     0.10     0.23    39.23     0  02:37        0.23
  J11                  JUNCTION     0.13     0.30    31.30     0  02:44        0.30
  J18                  JUNCTION     0.07     0.16    29.16     0  02:27        0.16
  Out_to_WWTP          OUTFALL      0.14     0.17     6.17     0  02:03        0.17
  T5                   STORAGE      3.66     5.00    32.00     0  02:02        5.00
  T4                   STORAGE      3.27     5.00    32.00     0  03:00        5.00
  T6                   STORAGE      3.53     5.00    36.00     0  02:12        5.00
  T3                   STORAGE      3.45     5.00    27.00     0  02:50        5.00
  T2                   STORAGE      3.48     5.00    26.00     0  02:33        5.00
  T1                   STORAGE      3.84     5.00    15.00     0  02:02        5.00
  
  
  *******************
  Node Inflow Summary
  *******************
  
  -------------------------------------------------------------------------------------------------
                                  Maximum  Maximum                  Lateral       Total        Flow
                                  Lateral    Total  Time of Max      Inflow      Inflow     Balance
                                   Inflow   Inflow   Occurrence      Volume      Volume       Error
  Node                 Type           CMS      CMS  days hr:min    10^6 ltr    10^6 ltr     Percent
  -------------------------------------------------------------------------------------------------
  J1                   JUNCTION     4.976    4.976     0  02:10         5.9         5.9      -0.040
  J3                   JUNCTION     0.000    0.267     0  04:57           0        4.87       0.954
  CSO7                 JUNCTION     0.198    0.198     0  02:20       0.793       0.793       0.091
  J5                   JUNCTION     0.277    0.350     0  02:20       0.855        1.46       0.085
  CSO9                 JUNCTION     0.833    0.833     0  02:10        1.28        1.28       0.021
  J8                   JUNCTION     2.986    3.110     0  02:10        5.99        6.64       0.054
  CSO8                 JUNCTION     1.519    1.519     0  02:15        4.76        4.76       0.015
  J10                  JUNCTION     1.215    1.700     0  01:55        3.28        5.93      -0.075
  J13                  JUNCTION     1.260    1.260     0  02:00         2.9         2.9      -0.273
  J15                  JUNCTION     0.000   10.961     0  02:10           0        18.4       0.262
  J16                  JUNCTION    10.612   10.612     0  02:10        11.8        11.8      -0.115
  CSO10                JUNCTION     3.608    3.608     0  02:10        4.15        4.15       0.004
  J12                  JUNCTION     0.000    1.741     0  02:16           0        7.87       4.126
  J4                   JUNCTION     0.000    0.085     0  01:55           0       0.613       0.541
  J6                   JUNCTION     0.000    0.080     0  04:50           0       0.622       0.629
  J2                   JUNCTION     0.000    0.039     0  02:03           0       0.867       0.589
  J19                  JUNCTION     0.000    0.271     0  02:02           0        6.06       0.209
  J9                   JUNCTION     0.000    0.175     0  02:12           0        1.89       0.807
  J14                  JUNCTION     0.000    0.190     0  04:40           0         3.4       0.281
  J17                  JUNCTION     0.000    0.139     0  05:25           0       0.773       0.941
  J7                   JUNCTION     0.000    0.127     0  02:37           0       0.649       0.466
  J11                  JUNCTION     0.000    0.487     0  02:44           0        2.67       0.287
  J18                  JUNCTION     0.000    0.202     0  02:28           0       0.981       0.049
  Out_to_WWTP          OUTFALL      0.000    0.271     0  02:03           0        6.04       0.000
  T5                   STORAGE      0.000    4.674     0  02:10           0        5.88       6.482
  T4                   STORAGE      0.000    0.343     0  02:21           0        1.46      26.911
  T6                   STORAGE      0.000    3.057     0  02:10           0        6.63      11.087
  T3                   STORAGE      0.000    1.653     0  01:57           0        7.56      19.664
  T2                   STORAGE      0.000    1.238     0  02:00           0        2.91      41.301
  T1                   STORAGE      0.000    7.012     0  02:14           0        17.3       4.752
  
  
  **********************
  Node Surcharge Summary
  **********************
  
  Surcharging occurs when water rises above the top of the highest conduit.
  ---------------------------------------------------------------------
                                               Max. Height   Min. Depth
                                   Hours       Above Crown    Below Rim
  Node                 Type      Surcharged         Meters       Meters
  ---------------------------------------------------------------------
  J1                   JUNCTION        0.19          6.000        0.000
  CSO7                 JUNCTION        0.95          0.945        0.000
  CSO9                 JUNCTION        0.75          1.682        0.000
  CSO8                 JUNCTION        1.12          1.547        0.000
  J15                  JUNCTION        0.14          1.000        0.000
  CSO10                JUNCTION        0.86          0.560        0.000
  J4                   JUNCTION        0.92          0.694        1.006
  
  
  *********************
  Node Flooding Summary
  *********************
  
  Flooding refers to all water that overflows a node, whether it ponds or not.
  --------------------------------------------------------------------------
                                                             Total   Maximum
                                 Maximum   Time of Max       Flood    Ponded
                        Hours       Rate    Occurrence      Volume     Depth
  Node                 Flooded       CMS   days hr:min    10^6 ltr    Meters
  --------------------------------------------------------------------------
  J1                      0.04     0.284      0  02:10       0.019     5.000
  CSO7                    0.83     0.124      0  02:20       0.179     0.000
  CSO9                    0.61     0.701      0  02:10       0.628     0.000
  CSO8                    0.99     1.024      0  02:15       2.090     0.000
  J15                     0.11     4.156      0  02:07       1.130     0.000
  CSO10                   0.81     3.390      0  02:10       3.169     0.000
  T5                      1.43     4.635      0  02:10       4.267     0.000
  T4                      1.52     0.078      0  03:00       0.105     0.000
  T6                      2.38     2.655      0  02:12       3.590     0.000
  T3                      1.08     0.897      0  02:50       0.539     0.000
  T2                      1.29     0.496      0  02:33       0.394     0.000
  T1                      5.43     6.741      0  02:14       9.711     0.000
  
  
  **********************
  Storage Volume Summary
  **********************
  
  ------------------------------------------------------------------------------------------------
                         Average    Avg   Evap  Exfil     Maximum    Max    Time of Max    Maximum
                          Volume   Pcnt   Pcnt   Pcnt      Volume   Pcnt     Occurrence    Outflow
  Storage Unit           1000 m³   Full   Loss   Loss     1000 m³   Full    days hr:min        CMS
  ------------------------------------------------------------------------------------------------
  T5                       0.366   73.1    0.0    0.0       0.500  100.0       0  02:02      0.039
  T4                       0.327   65.4    0.0    0.0       0.500  100.0       0  03:00      0.080
  T6                       0.424   70.6    0.0    0.0       0.600  100.0       0  02:12      0.175
  T3                       1.795   69.1    0.0    0.0       2.600  100.0       0  02:50      0.460
  T2                       0.695   69.5    0.0    0.0       1.000  100.0       0  02:33      0.139
  T1                       0.538   76.9    0.0    0.0       0.700  100.0       0  02:02      0.271
  
  
  ***********************
  Outfall Loading Summary
  ***********************
  
  -----------------------------------------------------------
                         Flow       Avg       Max       Total
                         Freq      Flow      Flow      Volume
  Outfall Node           Pcnt       CMS       CMS    10^6 ltr
  -----------------------------------------------------------
  Out_to_WWTP           99.05     0.217     0.271       6.045
  -----------------------------------------------------------
  System                99.05     0.217     0.271       6.045
  
  
  ********************
  Link Flow Summary
  ********************
  
  -----------------------------------------------------------------------------
                                 Maximum  Time of Max   Maximum    Max/    Max/
                                  |Flow|   Occurrence   |Veloc|    Full    Full
  Link                 Type          CMS  days hr:min     m/sec    Flow   Depth
  -----------------------------------------------------------------------------
  C1                   CONDUIT     0.039     0  02:53      0.99    0.01    0.12
  C6                   CONDUIT     0.073     0  02:20      1.29    1.17    0.83
  C2                   CONDUIT     0.079     0  04:55      1.62    0.09    0.23
  C9                   CONDUIT     0.127     0  02:37      1.17    0.43    0.73
  C16                  CONDUIT     0.486     0  02:10      1.83    0.05    0.17
  C3                   CONDUIT     0.191     0  04:43      2.16    0.07    0.17
  C19                  CONDUIT     0.137     0  05:30      1.48    0.05    0.56
  C11                  CONDUIT     0.259     0  04:59      1.92    0.01    0.53
  C20                  CONDUIT    10.540     0  02:10      6.03    0.33    0.70
  C22                  CONDUIT     0.202     0  02:27      1.65    0.09    0.60
  C12                  CONDUIT     0.175     0  02:35      0.83    0.01    0.29
  C17                  CONDUIT     1.674     0  01:55      3.76    0.08    0.31
  C10                  CONDUIT     3.057     0  02:10      2.34    0.31    0.69
  C13                  CONDUIT     1.653     0  01:57      2.36    0.10    0.76
  C18                  CONDUIT     1.238     0  02:00      3.36    0.05    0.57
  C23                  CONDUIT     7.012     0  02:14      3.97    0.77    1.00
  C4                   CONDUIT     4.674     0  02:10      5.95    1.13    1.00
  C7                   CONDUIT     0.343     0  02:21      1.44    0.08    0.60
  C14                  CONDUIT     0.271     0  02:03      2.08    0.02    0.09
  C5                   CONDUIT     0.085     0  01:55      1.67    1.46    1.00
  C8                   CONDUIT     0.127     0  02:37      1.89    1.60    0.86
  C15                  CONDUIT     0.487     0  02:44      3.59    1.55    0.83
  C21                  CONDUIT     0.202     0  02:28      1.90    1.16    0.69
  V4                   ORIFICE     0.080     0  04:50                      1.00
  V5                   ORIFICE     0.039     0  02:03                      1.00
  V1                   ORIFICE     0.271     0  02:02                      1.00
  V6                   ORIFICE     0.175     0  02:12                      1.00
  V3                   ORIFICE     0.190     0  04:40                      1.00
  V2                   ORIFICE     0.139     0  05:25                      1.00
  
  
  ***************************
  Flow Classification Summary
  ***************************
  
  -------------------------------------------------------------------------------------
                      Adjusted    ---------- Fraction of Time in Flow Class ---------- 
                       /Actual         Up    Down  Sub   Sup   Up    Down  Norm  Inlet 
  Conduit               Length    Dry  Dry   Dry   Crit  Crit  Crit  Crit  Ltd   Ctrl  
  -------------------------------------------------------------------------------------
  C1                      1.00   0.00  0.00  0.00  0.53  0.47  0.00  0.00  0.95  0.00
  C6                      1.00   0.00  0.00  0.00  0.14  0.86  0.00  0.00  0.00  0.00
  C2                      1.00   0.00  0.00  0.00  0.85  0.15  0.00  0.00  0.98  0.00
  C9                      1.00   0.00  0.00  0.00  1.00  0.00  0.00  0.00  1.00  0.00
  C16                     1.00   0.00  0.00  0.00  0.69  0.31  0.00  0.00  0.62  0.00
  C3                      1.00   0.00  0.01  0.00  0.05  0.95  0.00  0.00  0.12  0.00
  C19                     1.00   0.00  0.00  0.00  0.99  0.01  0.00  0.00  1.00  0.00
  C11                     1.00   0.00  0.00  0.00  0.20  0.80  0.00  0.00  1.00  0.00
  C20                     1.00   0.00  0.00  0.00  0.72  0.28  0.00  0.00  0.97  0.00
  C22                     1.00   0.00  0.00  0.00  0.93  0.07  0.00  0.00  1.00  0.00
  C12                     1.00   0.00  0.00  0.00  0.90  0.10  0.00  0.00  1.00  0.00
  C17                     1.00   0.00  0.00  0.00  0.67  0.33  0.00  0.00  0.94  0.00
  C10                     1.00   0.00  0.00  0.00  0.94  0.06  0.00  0.00  0.97  0.00
  C13                     1.00   0.00  0.00  0.00  0.87  0.13  0.00  0.00  0.23  0.00
  C18                     1.00   0.00  0.00  0.00  0.94  0.06  0.00  0.00  0.97  0.00
  C23                     1.00   0.00  0.00  0.00  0.88  0.12  0.00  0.00  0.89  0.00
  C4                      1.00   0.00  0.00  0.00  0.94  0.06  0.00  0.00  0.94  0.00
  C7                      1.00   0.00  0.00  0.00  0.94  0.06  0.00  0.00  0.97  0.00
  C14                     1.00   0.00  0.01  0.00  0.01  0.98  0.00  0.00  0.00  0.00
  C5                      1.00   0.00  0.00  0.00  0.94  0.06  0.00  0.00  0.84  0.00
  C8                      1.00   0.00  0.00  0.00  0.10  0.90  0.00  0.00  0.00  0.00
  C15                     1.00   0.00  0.00  0.00  0.00  1.00  0.00  0.00  0.00  0.00
  C21                     1.00   0.00  0.00  0.00  0.00  1.00  0.00  0.00  0.00  0.00
  
  
  *************************
  Conduit Surcharge Summary
  *************************
  
  ----------------------------------------------------------------------------
                                                           Hours        Hours 
                         --------- Hours Full --------   Above Full   Capacity
  Conduit                Both Ends  Upstream  Dnstream   Normal Flow   Limited
  ----------------------------------------------------------------------------
  C6                          0.01      0.92      0.01      0.84         0.01
  C9                          0.01      0.01      0.15      0.01         0.01
  C19                         0.01      0.01      0.34      0.01         0.01
  C11                         0.01      0.01      0.14      0.01         0.01
  C20                         0.01      0.01      0.14      0.01         0.01
  C22                         0.01      0.01      0.39      0.01         0.01
  C10                         0.01      0.01      5.82      0.01         0.01
  C13                         0.01      0.01      5.81      0.01         0.01
  C18                         0.01      0.01      5.83      0.01         0.01
  C23                         0.25      0.25      5.99      0.01         0.01
  C4                          0.19      0.19      6.05      0.10         0.10
  C7                          0.01      0.01      5.87      0.01         0.01
  C5                          0.92      0.95      1.02      0.97         0.90
  C8                          0.01      0.75      0.01      0.77         0.01
  C15                         0.01      1.12      0.01      1.14         0.01
  C21                         0.01      0.86      0.01      0.84         0.01
  

  Analysis begun on:  Fri Oct 18 10:07:29 2024
  Analysis ended on:  Fri Oct 18 10:07:29 2024
  Total elapsed time: < 1 sec