
  EPA STORM WATER MANAGEMENT MODEL - VERSION 5.2 (Build 5.2.4)
  PYSWMM TOOLKIT API - VERSION v1.0 (2023-11-27)
  ------------------------------------------------------------

  
  ****************
  Analysis Options
  ****************
  Flow Units ............... CMS
  Process Models:
    Rainfall/Runoff ........ YES
    RDII ................... NO
    Snowmelt ............... NO
    Groundwater ............ NO
    Flow Routing ........... YES
    Ponding Allowed ........ YES
    Water Quality .......... NO
  Infiltration Method ...... HORTON
  Flow Routing Method ...... DYNWAVE
  Surcharge Method ......... EXTRAN
  Starting Date ............ 01/01/2000 08:00:00
  Ending Date .............. 01/01/2000 16:00:00
  Antecedent Dry Days ...... 0.0
  Report Time Step ......... 00:05:00
  Wet Time Step ............ 00:05:00
  Dry Time Step ............ 00:05:00
  Routing Time Step ........ 30.00 sec
  Variable Time Step ....... YES
  Maximum Trials ........... 8
  Number of Threads ........ 1
  Head Tolerance ........... 0.001500 m
  
  
  **************************        Volume         Depth
  Runoff Quantity Continuity     hectare-m            mm
  **************************     ---------       -------
  Total Precipitation ......         2.437        13.526
  Evaporation Loss .........         0.000         0.000
  Infiltration Loss ........         0.000         0.000
  Surface Runoff ...........         2.469        13.703
  Final Storage ............         0.020         0.111
  Continuity Error (%) .....        -2.136
  
  
  **************************        Volume        Volume
  Flow Routing Continuity        hectare-m      10^6 ltr
  **************************     ---------     ---------
  Dry Weather Inflow .......         0.399         3.989
  Wet Weather Inflow .......         2.471        24.707
  Groundwater Inflow .......         0.000         0.000
  RDII Inflow ..............         0.000         0.000
  External Inflow ..........         0.000         0.000
  External Outflow .........         0.638         6.382
  Flooding Loss ............         1.339        13.391
  Evaporation Loss .........         0.000         0.000
  Exfiltration Loss ........         0.000         0.000
  Initial Stored Volume ....         0.000         0.000
  Final Stored Volume ......         0.683         6.834
  Continuity Error (%) .....         7.276
  
  
  *************************
  Highest Continuity Errors
  *************************
  Node T2 (33.57%)
  Node T4 (21.65%)
  Node T3 (16.17%)
  Node T5 (11.11%)
  Node T6 (9.07%)
  
  
  ***************************
  Time-Step Critical Elements
  ***************************
  Link C15 (26.42%)
  
  
  ********************************
  Highest Flow Instability Indexes
  ********************************
  Link C13 (12)
  Link V3 (6)
  Link C3 (4)
  Link C23 (2)
  Link C5 (2)
  
  
  *********************************
  Most Frequent Nonconverging Nodes
  *********************************
  Node Out_to_WWTP (2.51%)
  Node J4 (1.49%)
  Node CSO7 (1.49%)
  Node CSO9 (0.93%)
  Node CSO8 (0.19%)
  
  
  *************************
  Routing Time Step Summary
  *************************
  Minimum Time Step           :     1.78 sec
  Average Time Step           :    26.51 sec
  Maximum Time Step           :    30.00 sec
  % of Time in Steady State   :     0.00
  Average Iterations per Step :     2.47
  % of Steps Not Converging   :     2.51
  Time Step Frequencies       :
     30.000 - 13.228 sec      :    85.94 %
     13.228 -  5.833 sec      :    13.78 %
      5.833 -  2.572 sec      :     0.19 %
      2.572 -  1.134 sec      :     0.09 %
      1.134 -  0.500 sec      :     0.00 %
  
  
  ***************************
  Subcatchment Runoff Summary
  ***************************
  
  ------------------------------------------------------------------------------------------------------------------------------
                            Total      Total      Total      Total     Imperv       Perv      Total       Total     Peak  Runoff
                           Precip      Runon       Evap      Infil     Runoff     Runoff     Runoff      Runoff   Runoff   Coeff
  Subcatchment                 mm         mm         mm         mm         mm         mm         mm    10^6 ltr      CMS
  ------------------------------------------------------------------------------------------------------------------------------
  SC01                      15.62       0.00       0.00       0.00      15.90       0.00      15.90        5.25     4.88   1.018
  SC02                       7.77       0.00       0.00       0.00       7.90       0.00       7.90        1.80     1.91   1.017
  SC03                      13.38       0.00       0.00       0.00      13.84       0.00      13.84        2.49     2.84   1.035
  SC04                       7.77       0.00       0.00       0.00       7.73       0.00       7.73        0.53     0.31   0.994
  SC05                      15.62       0.00       0.00       0.00      15.88       0.00      15.88        2.48     2.20   1.016
  SC06                      15.51       0.00       0.00       0.00      15.46       0.00      15.46        5.03     3.11   0.996
  SC07                       7.77       0.00       0.00       0.00       7.73       0.00       7.73        0.37     0.21   0.994
  SC08                      13.38       0.00       0.00       0.00      13.62       0.00      13.62        3.81     3.53   1.018
  SC09                      15.51       0.00       0.00       0.00      15.61       0.00      15.61        1.08     0.85   1.006
  SC010                     15.62       0.00       0.00       0.00      15.82       0.00      15.82        1.86     1.54   1.013
  
  
  ******************
  Node Depth Summary
  ******************
  
  ---------------------------------------------------------------------------------
                                 Average  Maximum  Maximum  Time of Max    Reported
                                   Depth    Depth      HGL   Occurrence   Max Depth
  Node                 Type       Meters   Meters   Meters  days hr:min      Meters
  ---------------------------------------------------------------------------------
  J1                   JUNCTION     0.10     0.66    34.66     0  01:35        0.66
  J3                   JUNCTION     0.13     0.16    18.16     0  03:40        0.16
  CSO7                 JUNCTION     0.24     1.20    35.20     0  01:21        1.20
  J5                   JUNCTION     0.07     0.21    32.21     0  01:27        0.20
  CSO9                 JUNCTION     0.38     2.00    42.00     0  01:23        2.00
  J8                   JUNCTION     0.15     0.63    36.63     0  01:38        0.59
  CSO8                 JUNCTION     0.37     2.00    34.00     0  01:16        2.00
  J10                  JUNCTION     0.11     0.55    29.55     0  01:25        0.54
  J13                  JUNCTION     0.07     0.36    29.36     0  01:25        0.35
  J15                  JUNCTION     0.23     1.02    16.02     0  01:37        0.97
  J16                  JUNCTION     0.09     0.53    30.53     0  01:30        0.52
  CSO10                JUNCTION     0.22     1.00    31.00     0  01:23        1.00
  J12                  JUNCTION     0.46     0.84    26.84     0  03:33        0.83
  J4                   JUNCTION     0.18     0.84    33.84     0  01:26        0.75
  J6                   JUNCTION     0.06     0.07    25.07     0  03:47        0.07
  J2                   JUNCTION     0.07     0.08    25.08     0  02:31        0.08
  J19                  JUNCTION     0.15     0.17     8.17     0  01:35        0.17
  J9                   JUNCTION     0.11     0.16    29.16     0  02:52        0.16
  J14                  JUNCTION     0.15     0.19    20.19     0  03:22        0.19
  J17                  JUNCTION     0.06     0.07    20.07     0  03:07        0.07
  J7                   JUNCTION     0.09     0.23    39.23     0  01:58        0.23
  J11                  JUNCTION     0.10     0.30    31.30     0  01:47        0.30
  J18                  JUNCTION     0.06     0.16    29.16     0  01:56        0.16
  Out_to_WWTP          OUTFALL      0.15     0.17     6.17     0  01:35        0.17
  T5                   STORAGE      3.72     5.00    32.00     0  01:34        5.00
  T4                   STORAGE      2.93     4.06    31.06     0  03:45        4.06
  T6                   STORAGE      3.66     5.00    36.00     0  01:36        5.00
  T3                   STORAGE      3.57     4.84    26.84     0  03:20        4.84
  T2                   STORAGE      3.36     4.42    25.42     0  03:06        4.42
  T1                   STORAGE      3.99     5.00    15.00     0  01:34        5.00
  
  
  *******************
  Node Inflow Summary
  *******************
  
  -------------------------------------------------------------------------------------------------
                                  Maximum  Maximum                  Lateral       Total        Flow
                                  Lateral    Total  Time of Max      Inflow      Inflow     Balance
                                   Inflow   Inflow   Occurrence      Volume      Volume       Error
  Node                 Type           CMS      CMS  days hr:min    10^6 ltr    10^6 ltr     Percent
  -------------------------------------------------------------------------------------------------
  J1                   JUNCTION     2.215    2.215     0  01:30        3.05        3.05      -0.035
  J3                   JUNCTION     0.000    0.252     0  03:23           0        5.25       0.852
  CSO7                 JUNCTION     0.223    0.223     0  01:25        0.66        0.66       0.038
  J5                   JUNCTION     0.314    0.382     0  01:26       0.662        1.19       0.057
  CSO9                 JUNCTION     0.853    0.853     0  01:35        1.28        1.28       0.017
  J8                   JUNCTION     3.144    3.270     0  01:35        5.99        6.62      -0.001
  CSO8                 JUNCTION     3.541    3.541     0  01:25         4.1         4.1      -0.099
  J10                  JUNCTION     2.853    3.330     0  01:25        2.87        4.63      -0.082
  J13                  JUNCTION     1.920    1.920     0  01:25        2.27        2.27      -0.566
  J15                  JUNCTION     0.000    5.226     0  01:30           0        12.5       0.816
  J16                  JUNCTION     4.901    4.901     0  01:30        5.81        5.81      -0.168
  CSO10                JUNCTION     1.540    1.540     0  01:35           2           2      -0.021
  J12                  JUNCTION     0.000    3.301     0  01:25           0        7.31       0.569
  J4                   JUNCTION     0.000    0.085     0  01:24           0       0.533       0.551
  J6                   JUNCTION     0.000    0.025     0  03:45           0       0.585       0.629
  J2                   JUNCTION     0.000    0.039     0  01:34           0       0.904       0.564
  J19                  JUNCTION     0.000    0.271     0  01:34           0        6.39       0.198
  J9                   JUNCTION     0.000    0.175     0  01:36           0        2.52       0.568
  J14                  JUNCTION     0.000    0.187     0  03:20           0        3.77       0.250
  J17                  JUNCTION     0.000    0.031     0  03:06           0        0.73       0.917
  J7                   JUNCTION     0.000    0.127     0  01:58           0       0.637       0.479
  J11                  JUNCTION     0.000    0.487     0  01:46           0        1.77       0.549
  J18                  JUNCTION     0.000    0.202     0  01:56           0       0.797       0.036
  Out_to_WWTP          OUTFALL      0.000    0.271     0  01:35           0        6.38       0.000
  T5                   STORAGE      0.000    2.214     0  01:30           0        3.05      12.496
  T4                   STORAGE      0.000    0.380     0  01:27           0        1.19      27.635
  T6                   STORAGE      0.000    3.207     0  01:35           0        6.62       9.975
  T3                   STORAGE      0.000    3.230     0  01:26           0        7.27      19.285
  T2                   STORAGE      0.000    1.896     0  01:25           0        2.28      50.533
  T1                   STORAGE      0.000    4.424     0  01:31           0        12.4       6.450
  
  
  **********************
  Node Surcharge Summary
  **********************
  
  Surcharging occurs when water rises above the top of the highest conduit.
  ---------------------------------------------------------------------
                                               Max. Height   Min. Depth
                                   Hours       Above Crown    Below Rim
  Node                 Type      Surcharged         Meters       Meters
  ---------------------------------------------------------------------
  CSO7                 JUNCTION        0.60          0.945        0.000
  CSO9                 JUNCTION        0.74          1.682        0.000
  CSO8                 JUNCTION        0.63          1.547        0.000
  CSO10                JUNCTION        0.61          0.560        0.000
  J4                   JUNCTION        0.55          0.536        1.164
  
  
  *********************
  Node Flooding Summary
  *********************
  
  Flooding refers to all water that overflows a node, whether it ponds or not.
  --------------------------------------------------------------------------
                                                             Total   Maximum
                                 Maximum   Time of Max       Flood    Ponded
                        Hours       Rate    Occurrence      Volume     Depth
  Node                 Flooded       CMS   days hr:min    10^6 ltr    Meters
  --------------------------------------------------------------------------
  CSO7                    0.50     0.147      0  01:26       0.127     0.000
  CSO9                    0.59     0.723      0  01:35       0.638     0.000
  CSO8                    0.52     3.050      0  01:25       2.339     0.000
  CSO10                   0.56     1.336      0  01:35       1.204     0.000
  T5                      1.18     2.140      0  01:35       1.430     0.000
  T6                      1.25     2.849      0  01:36       3.054     0.000
  T1                      6.23     3.958      0  01:38       4.587     0.000
  
  
  **********************
  Storage Volume Summary
  **********************
  
  ------------------------------------------------------------------------------------------------
                         Average    Avg   Evap  Exfil     Maximum    Max    Time of Max    Maximum
                          Volume   Pcnt   Pcnt   Pcnt      Volume   Pcnt     Occurrence    Outflow
  Storage Unit           1000 m³   Full   Loss   Loss     1000 m³   Full    days hr:min        CMS
  ------------------------------------------------------------------------------------------------
  T5                       0.372   74.4    0.0    0.0       0.500  100.0       0  01:34      0.039
  T4                       0.293   58.5    0.0    0.0       0.406   81.2       0  03:45      0.025
  T6                       0.440   73.3    0.0    0.0       0.600  100.0       0  01:36      0.175
  T3                       1.855   71.3    0.0    0.0       2.519   96.9       0  03:20      0.263
  T2                       0.672   67.2    0.0    0.0       0.884   88.4       0  03:06      0.031
  T1                       0.559   79.8    0.0    0.0       0.700  100.0       0  01:34      0.271
  
  
  ***********************
  Outfall Loading Summary
  ***********************
  
  -----------------------------------------------------------
                         Flow       Avg       Max       Total
                         Freq      Flow      Flow      Volume
  Outfall Node           Pcnt       CMS       CMS    10^6 ltr
  -----------------------------------------------------------
  Out_to_WWTP           98.98     0.223     0.271       6.382
  -----------------------------------------------------------
  System                98.98     0.223     0.271       6.382
  
  
  ********************
  Link Flow Summary
  ********************
  
  -----------------------------------------------------------------------------
                                 Maximum  Time of Max   Maximum    Max/    Max/
                                  |Flow|   Occurrence   |Veloc|    Full    Full
  Link                 Type          CMS  days hr:min     m/sec    Flow   Depth
  -----------------------------------------------------------------------------
  C1                   CONDUIT     0.039     0  02:23      0.94    0.01    0.12
  C6                   CONDUIT     0.074     0  01:27      1.29    1.17    0.84
  C2                   CONDUIT     0.025     0  03:47      0.97    0.03    0.19
  C9                   CONDUIT     0.127     0  01:58      1.17    0.43    0.73
  C16                  CONDUIT     0.486     0  01:39      1.86    0.05    0.21
  C3                   CONDUIT     0.188     0  03:23      2.15    0.07    0.17
  C19                  CONDUIT     0.031     0  03:08      0.55    0.01    0.53
  C11                  CONDUIT     0.250     0  03:40      1.89    0.01    0.29
  C20                  CONDUIT     4.884     0  01:30      6.12    0.15    0.37
  C22                  CONDUIT     0.202     0  01:57      1.71    0.09    0.60
  C12                  CONDUIT     0.175     0  02:39      0.96    0.01    0.25
  C17                  CONDUIT     3.279     0  01:25      4.79    0.16    0.28
  C10                  CONDUIT     3.207     0  01:35      2.43    0.33    0.71
  C13                  CONDUIT     3.230     0  01:26      3.72    0.19    0.71
  C18                  CONDUIT     1.896     0  01:25      3.36    0.07    0.58
  C23                  CONDUIT     4.424     0  01:31      3.10    0.49    0.84
  C4                   CONDUIT     2.214     0  01:30      3.45    0.54    0.83
  C7                   CONDUIT     0.380     0  01:27      1.50    0.09    0.60
  C14                  CONDUIT     0.271     0  01:35      2.08    0.02    0.09
  C5                   CONDUIT     0.085     0  01:24      1.74    1.45    1.00
  C8                   CONDUIT     0.127     0  01:58      2.00    1.60    0.86
  C15                  CONDUIT     0.487     0  01:46      4.01    1.55    0.83
  C21                  CONDUIT     0.202     0  01:56      1.92    1.16    0.69
  V4                   ORIFICE     0.025     0  03:45                      1.00
  V5                   ORIFICE     0.039     0  01:34                      1.00
  V1                   ORIFICE     0.271     0  01:34                      1.00
  V6                   ORIFICE     0.175     0  01:36                      1.00
  V3                   ORIFICE     0.187     0  03:20                      1.00
  V2                   ORIFICE     0.031     0  03:06                      0.24
  
  
  ***************************
  Flow Classification Summary
  ***************************
  
  -------------------------------------------------------------------------------------
                      Adjusted    ---------- Fraction of Time in Flow Class ---------- 
                       /Actual         Up    Down  Sub   Sup   Up    Down  Norm  Inlet 
  Conduit               Length    Dry  Dry   Dry   Crit  Crit  Crit  Crit  Ltd   Ctrl  
  -------------------------------------------------------------------------------------
  C1                      1.00   0.00  0.00  0.00  0.65  0.35  0.00  0.00  0.95  0.00
  C6                      1.00   0.00  0.00  0.00  0.10  0.90  0.00  0.00  0.00  0.00
  C2                      1.00   0.00  0.00  0.00  0.89  0.10  0.00  0.00  0.98  0.00
  C9                      1.00   0.00  0.00  0.00  1.00  0.00  0.00  0.00  1.00  0.00
  C16                     1.00   0.00  0.00  0.00  0.72  0.28  0.00  0.00  0.65  0.00
  C3                      1.00   0.00  0.01  0.00  0.05  0.95  0.00  0.00  0.09  0.00
  C19                     1.00   0.00  0.00  0.00  1.00  0.00  0.00  0.00  1.00  0.00
  C11                     1.00   0.00  0.00  0.00  0.17  0.83  0.00  0.00  1.00  0.00
  C20                     1.00   0.00  0.00  0.00  0.74  0.26  0.00  0.00  0.97  0.00
  C22                     1.00   0.00  0.00  0.00  0.93  0.07  0.00  0.00  1.00  0.00
  C12                     1.00   0.00  0.00  0.00  0.93  0.06  0.00  0.00  1.00  0.00
  C17                     1.00   0.00  0.00  0.00  0.75  0.25  0.00  0.00  0.96  0.00
  C10                     1.00   0.00  0.00  0.00  0.93  0.07  0.00  0.00  0.96  0.00
  C13                     1.00   0.00  0.00  0.00  0.87  0.13  0.00  0.00  0.15  0.00
  C18                     1.00   0.00  0.00  0.00  0.92  0.08  0.00  0.00  0.97  0.00
  C23                     1.00   0.00  0.00  0.00  0.87  0.13  0.00  0.00  0.91  0.00
  C4                      1.00   0.00  0.00  0.00  0.93  0.07  0.00  0.00  0.96  0.00
  C7                      1.00   0.00  0.00  0.00  0.94  0.06  0.00  0.00  0.97  0.00
  C14                     1.00   0.00  0.01  0.00  0.01  0.98  0.00  0.00  0.00  0.00
  C5                      1.00   0.00  0.00  0.00  0.95  0.05  0.00  0.00  0.89  0.00
  C8                      1.00   0.00  0.00  0.00  0.09  0.91  0.00  0.00  0.00  0.00
  C15                     1.00   0.00  0.00  0.00  0.00  1.00  0.00  0.00  0.00  0.00
  C21                     1.00   0.00  0.00  0.00  0.01  0.99  0.00  0.00  0.00  0.00
  
  
  *************************
  Conduit Surcharge Summary
  *************************
  
  ----------------------------------------------------------------------------
                                                           Hours        Hours 
                         --------- Hours Full --------   Above Full   Capacity
  Conduit                Both Ends  Upstream  Dnstream   Normal Flow   Limited
  ----------------------------------------------------------------------------
  C6                          0.01      0.54      0.01      0.48         0.01
  C9                          0.01      0.01      0.20      0.01         0.01
  C19                         0.01      0.01      0.04      0.01         0.01
  C22                         0.01      0.01      0.17      0.01         0.01
  C10                         0.01      0.01      6.41      0.01         0.01
  C13                         0.01      0.01      6.42      0.01         0.01
  C18                         0.01      0.01      6.42      0.01         0.01
  C23                         0.01      0.01      6.42      0.01         0.01
  C4                          0.01      0.01      6.46      0.01         0.01
  C7                          0.01      0.01      6.42      0.01         0.01
  C5                          0.54      0.60      0.65      0.59         0.52
  C8                          0.01      0.73      0.01      0.75         0.01
  C15                         0.01      0.62      0.01      0.64         0.01
  C21                         0.01      0.61      0.01      0.59         0.01
  

  Analysis begun on:  Fri Nov 29 09:26:01 2024
  Analysis ended on:  Fri Nov 29 09:26:01 2024
  Total elapsed time: < 1 sec