
  EPA STORM WATER MANAGEMENT MODEL - VERSION 5.2 (Build 5.2.4)
  PYSWMM TOOLKIT API - VERSION v1.0 (2023-11-27)
  ------------------------------------------------------------

  
  ****************
  Analysis Options
  ****************
  Flow Units ............... CMS
  Process Models:
    Rainfall/Runoff ........ YES
    RDII ................... NO
    Snowmelt ............... NO
    Groundwater ............ NO
    Flow Routing ........... YES
    Ponding Allowed ........ YES
    Water Quality .......... NO
  Infiltration Method ...... HORTON
  Flow Routing Method ...... DYNWAVE
  Surcharge Method ......... EXTRAN
  Starting Date ............ 01/01/2000 08:00:00
  Ending Date .............. 01/01/2000 16:00:00
  Antecedent Dry Days ...... 0.0
  Report Time Step ......... 00:05:00
  Wet Time Step ............ 00:05:00
  Dry Time Step ............ 00:05:00
  Routing Time Step ........ 30.00 sec
  Variable Time Step ....... YES
  Maximum Trials ........... 8
  Number of Threads ........ 1
  Head Tolerance ........... 0.001500 m
  
  
  **************************        Volume         Depth
  Runoff Quantity Continuity     hectare-m            mm
  **************************     ---------       -------
  Total Precipitation ......         3.271        18.152
  Evaporation Loss .........         0.000         0.000
  Infiltration Loss ........         0.000         0.000
  Surface Runoff ...........         3.305        18.341
  Final Storage ............         0.023         0.125
  Continuity Error (%) .....        -1.735
  
  
  **************************        Volume        Volume
  Flow Routing Continuity        hectare-m      10^6 ltr
  **************************     ---------     ---------
  Dry Weather Inflow .......         0.399         3.989
  Wet Weather Inflow .......         3.306        33.061
  Groundwater Inflow .......         0.000         0.000
  RDII Inflow ..............         0.000         0.000
  External Inflow ..........         0.000         0.000
  External Outflow .........         0.579         5.791
  Flooding Loss ............         2.141        21.406
  Evaporation Loss .........         0.000         0.000
  Exfiltration Loss ........         0.000         0.000
  Initial Stored Volume ....         0.000         0.000
  Final Stored Volume ......         0.754         7.543
  Continuity Error (%) .....         6.235
  
  
  *************************
  Highest Continuity Errors
  *************************
  Node T2 (27.90%)
  Node T4 (21.23%)
  Node T3 (14.74%)
  Node T5 (13.11%)
  Node T1 (6.68%)
  
  
  ***************************
  Time-Step Critical Elements
  ***************************
  Link C15 (31.86%)
  
  
  ********************************
  Highest Flow Instability Indexes
  ********************************
  Link C13 (10)
  Link C5 (2)
  Link C12 (2)
  Link C11 (2)
  Link C6 (1)
  
  
  *********************************
  Most Frequent Nonconverging Nodes
  *********************************
  Node Out_to_WWTP (2.88%)
  Node CSO7 (1.71%)
  Node J4 (1.44%)
  Node CSO9 (0.90%)
  Node J8 (0.72%)
  
  
  *************************
  Routing Time Step Summary
  *************************
  Minimum Time Step           :     0.01 sec
  Average Time Step           :    25.65 sec
  Maximum Time Step           :    30.00 sec
  % of Time in Steady State   :     0.00
  Average Iterations per Step :     2.58
  % of Steps Not Converging   :     2.88
  Time Step Frequencies       :
     30.000 - 13.228 sec      :    82.58 %
     13.228 -  5.833 sec      :    17.06 %
      5.833 -  2.572 sec      :     0.27 %
      2.572 -  1.134 sec      :     0.09 %
      1.134 -  0.500 sec      :     0.00 %
  
  
  ***************************
  Subcatchment Runoff Summary
  ***************************
  
  ------------------------------------------------------------------------------------------------------------------------------
                            Total      Total      Total      Total     Imperv       Perv      Total       Total     Peak  Runoff
                           Precip      Runon       Evap      Infil     Runoff     Runoff     Runoff      Runoff   Runoff   Coeff
  Subcatchment                 mm         mm         mm         mm         mm         mm         mm    10^6 ltr      CMS
  ------------------------------------------------------------------------------------------------------------------------------
  SC01                      13.11       0.00       0.00       0.00      13.34       0.00      13.34        4.40     4.62   1.018
  SC02                      11.17       0.00       0.00       0.00      11.30       0.00      11.30        2.57     2.56   1.012
  SC03                      23.18       0.00       0.00       0.00      23.58       0.00      23.58        4.24     4.70   1.017
  SC04                      11.17       0.00       0.00       0.00      11.12       0.00      11.12        0.77     0.52   0.995
  SC05                      13.11       0.00       0.00       0.00      13.32       0.00      13.32        2.08     2.13   1.016
  SC06                      26.09       0.00       0.00       0.00      26.17       0.00      26.17        8.52     5.99   1.003
  SC07                      11.17       0.00       0.00       0.00      11.12       0.00      11.12        0.53     0.36   0.995
  SC08                      23.18       0.00       0.00       0.00      23.44       0.00      23.44        6.56     6.21   1.011
  SC09                      26.09       0.00       0.00       0.00      26.39       0.00      26.39        1.82     1.56   1.011
  SC010                     13.11       0.00       0.00       0.00      13.26       0.00      13.26        1.56     1.47   1.012
  
  
  ******************
  Node Depth Summary
  ******************
  
  ---------------------------------------------------------------------------------
                                 Average  Maximum  Maximum  Time of Max    Reported
                                   Depth    Depth      HGL   Occurrence   Max Depth
  Node                 Type       Meters   Meters   Meters  days hr:min      Meters
  ---------------------------------------------------------------------------------
  J1                   JUNCTION     0.09     0.58    34.58     0  02:20        0.55
  J3                   JUNCTION     0.12     0.16    18.16     0  04:59        0.16
  CSO7                 JUNCTION     0.28     1.20    35.20     0  02:06        1.20
  J5                   JUNCTION     0.08     0.26    32.26     0  02:15        0.25
  CSO9                 JUNCTION     0.42     2.00    42.00     0  02:05        2.00
  J8                   JUNCTION     0.21     2.69    38.69     0  02:18        2.04
  CSO8                 JUNCTION     0.44     2.00    34.00     0  01:57        2.00
  J10                  JUNCTION     0.13     0.68    29.68     0  02:10        0.68
  J13                  JUNCTION     0.08     0.42    29.42     0  02:15        0.41
  J15                  JUNCTION     0.21     0.89    15.89     0  02:23        0.86
  J16                  JUNCTION     0.09     0.51    30.51     0  02:20        0.51
  CSO10                JUNCTION     0.21     1.00    31.00     0  02:11        1.00
  J12                  JUNCTION     0.67     1.08    27.08     0  02:37        1.05
  J4                   JUNCTION     0.19     0.76    33.76     0  02:45        0.75
  J6                   JUNCTION     0.06     0.12    25.12     0  04:55        0.12
  J2                   JUNCTION     0.06     0.08    25.08     0  03:35        0.08
  J19                  JUNCTION     0.14     0.17     8.17     0  02:22        0.17
  J9                   JUNCTION     0.10     0.16    29.16     0  02:30        0.16
  J14                  JUNCTION     0.14     0.19    20.19     0  04:42        0.19
  J17                  JUNCTION     0.06     0.15    20.15     0  05:55        0.15
  J7                   JUNCTION     0.10     0.23    39.23     0  02:45        0.23
  J11                  JUNCTION     0.12     0.30    31.30     0  02:37        0.30
  J18                  JUNCTION     0.06     0.16    29.16     0  02:40        0.16
  Out_to_WWTP          OUTFALL      0.14     0.17     6.17     0  02:22        0.17
  T5                   STORAGE      3.40     5.00    32.00     0  02:21        5.00
  T4                   STORAGE      3.27     5.00    32.00     0  03:03        5.00
  T6                   STORAGE      3.53     5.00    36.00     0  02:15        5.00
  T3                   STORAGE      3.59     5.00    27.00     0  02:27        5.00
  T2                   STORAGE      3.50     5.00    26.00     0  02:26        5.00
  T1                   STORAGE      3.57     5.00    15.00     0  02:21        5.00
  
  
  *******************
  Node Inflow Summary
  *******************
  
  -------------------------------------------------------------------------------------------------
                                  Maximum  Maximum                  Lateral       Total        Flow
                                  Lateral    Total  Time of Max      Inflow      Inflow     Balance
                                   Inflow   Inflow   Occurrence      Volume      Volume       Error
  Node                 Type           CMS      CMS  days hr:min    10^6 ltr    10^6 ltr     Percent
  -------------------------------------------------------------------------------------------------
  J1                   JUNCTION     2.147    2.147     0  02:20        2.65        2.65       0.031
  J3                   JUNCTION     0.000    0.267     0  04:57           0        4.81       0.943
  CSO7                 JUNCTION     0.370    0.370     0  02:15       0.821       0.821       0.060
  J5                   JUNCTION     0.526    0.602     0  02:15       0.896        1.46       0.066
  CSO9                 JUNCTION     1.568    1.568     0  02:15        2.02        2.02      -0.010
  J8                   JUNCTION     6.028    6.155     0  02:20        9.48        10.1      -0.044
  CSO8                 JUNCTION     6.220    6.220     0  02:10        6.86        6.86       0.007
  J10                  JUNCTION     4.711    5.196     0  02:10        4.63        6.77      -0.133
  J13                  JUNCTION     2.579    2.579     0  02:15        3.04        3.04      -0.405
  J15                  JUNCTION     0.000    4.981     0  02:20           0        11.2       0.989
  J16                  JUNCTION     4.642    4.642     0  02:20        4.96        4.96      -0.151
  CSO10                JUNCTION     1.472    1.472     0  02:20         1.7         1.7      -0.002
  J12                  JUNCTION     0.000    5.095     0  02:10           0        8.74       3.845
  J4                   JUNCTION     0.000    0.085     0  02:09           0        0.57       0.575
  J6                   JUNCTION     0.000    0.080     0  04:50           0       0.617       0.634
  J2                   JUNCTION     0.000    0.039     0  02:21           0       0.835       0.631
  J19                  JUNCTION     0.000    0.271     0  02:21           0         5.8       0.217
  J9                   JUNCTION     0.000    0.175     0  02:15           0        1.85       0.923
  J14                  JUNCTION     0.000    0.190     0  04:40           0        3.38       0.286
  J17                  JUNCTION     0.000    0.138     0  05:50           0       0.741       0.911
  J7                   JUNCTION     0.000    0.127     0  02:45           0       0.673       0.454
  J11                  JUNCTION     0.000    0.487     0  02:37           0        2.15       0.391
  J18                  JUNCTION     0.000    0.202     0  02:40           0       0.775       0.109
  Out_to_WWTP          OUTFALL      0.000    0.271     0  02:22           0        5.79       0.000
  T5                   STORAGE      0.000    2.030     0  02:20           0        2.65      15.088
  T4                   STORAGE      0.000    0.592     0  02:15           0        1.46      26.955
  T6                   STORAGE      0.000    6.154     0  02:20           0        10.2       6.376
  T3                   STORAGE      0.000    4.892     0  02:11           0        8.41      17.293
  T2                   STORAGE      0.000    2.550     0  02:15           0        3.06      38.688
  T1                   STORAGE      0.000    4.075     0  02:19           0        11.1       7.160
  
  
  **********************
  Node Surcharge Summary
  **********************
  
  Surcharging occurs when water rises above the top of the highest conduit.
  ---------------------------------------------------------------------
                                               Max. Height   Min. Depth
                                   Hours       Above Crown    Below Rim
  Node                 Type      Surcharged         Meters       Meters
  ---------------------------------------------------------------------
  CSO7                 JUNCTION        0.77          0.945        0.000
  CSO9                 JUNCTION        0.83          1.682        0.000
  J8                   JUNCTION        0.07          1.193        0.307
  CSO8                 JUNCTION        0.82          1.547        0.000
  CSO10                JUNCTION        0.54          0.560        0.000
  J4                   JUNCTION        0.71          0.455        1.245
  
  
  *********************
  Node Flooding Summary
  *********************
  
  Flooding refers to all water that overflows a node, whether it ponds or not.
  --------------------------------------------------------------------------
                                                             Total   Maximum
                                 Maximum   Time of Max       Flood    Ponded
                        Hours       Rate    Occurrence      Volume     Depth
  Node                 Flooded       CMS   days hr:min    10^6 ltr    Meters
  --------------------------------------------------------------------------
  CSO7                    0.65     0.293      0  02:15       0.251     0.000
  CSO9                    0.67     1.439      0  02:15       1.346     0.000
  CSO8                    0.67     5.684      0  02:10       4.702     0.000
  CSO10                   0.49     1.263      0  02:20       0.925     0.000
  T5                      1.30     1.930      0  02:21       1.071     0.000
  T4                      1.53     0.079      0  03:03       0.107     0.000
  T6                      2.33     5.972      0  02:20       7.196     0.000
  T3                      1.39     1.872      0  02:27       1.340     0.000
  T2                      1.48     0.695      0  02:26       0.571     0.000
  T1                      5.33     3.463      0  02:23       3.886     0.000
  
  
  **********************
  Storage Volume Summary
  **********************
  
  ------------------------------------------------------------------------------------------------
                         Average    Avg   Evap  Exfil     Maximum    Max    Time of Max    Maximum
                          Volume   Pcnt   Pcnt   Pcnt      Volume   Pcnt     Occurrence    Outflow
  Storage Unit           1000 m³   Full   Loss   Loss     1000 m³   Full    days hr:min        CMS
  ------------------------------------------------------------------------------------------------
  T5                       0.340   67.9    0.0    0.0       0.500  100.0       0  02:21      0.039
  T4                       0.327   65.3    0.0    0.0       0.500  100.0       0  03:03      0.080
  T6                       0.423   70.5    0.0    0.0       0.600  100.0       0  02:15      0.175
  T3                       1.866   71.8    0.0    0.0       2.600  100.0       0  02:27      1.070
  T2                       0.700   70.0    0.0    0.0       1.000  100.0       0  02:26      0.138
  T1                       0.499   71.3    0.0    0.0       0.700  100.0       0  02:21      0.271
  
  
  ***********************
  Outfall Loading Summary
  ***********************
  
  -----------------------------------------------------------
                         Flow       Avg       Max       Total
                         Freq      Flow      Flow      Volume
  Outfall Node           Pcnt       CMS       CMS    10^6 ltr
  -----------------------------------------------------------
  Out_to_WWTP           99.01     0.204     0.271       5.791
  -----------------------------------------------------------
  System                99.01     0.204     0.271       5.791
  
  
  ********************
  Link Flow Summary
  ********************
  
  -----------------------------------------------------------------------------
                                 Maximum  Time of Max   Maximum    Max/    Max/
                                  |Flow|   Occurrence   |Veloc|    Full    Full
  Link                 Type          CMS  days hr:min     m/sec    Flow   Depth
  -----------------------------------------------------------------------------
  C1                   CONDUIT     0.039     0  03:11      0.92    0.01    0.12
  C6                   CONDUIT     0.076     0  02:15      1.29    1.21    0.93
  C2                   CONDUIT     0.079     0  04:55      1.62    0.09    0.23
  C9                   CONDUIT     0.127     0  02:46      1.13    0.43    0.73
  C16                  CONDUIT     0.486     0  02:28      1.86    0.05    0.24
  C3                   CONDUIT     0.191     0  04:43      2.16    0.07    0.17
  C19                  CONDUIT     0.136     0  05:55      1.48    0.05    0.48
  C11                  CONDUIT     0.259     0  04:59      1.92    0.01    0.26
  C20                  CONDUIT     4.595     0  02:20      5.91    0.14    0.33
  C22                  CONDUIT     0.202     0  02:40      1.49    0.09    0.60
  C12                  CONDUIT     0.174     0  02:30      0.85    0.01    0.30
  C17                  CONDUIT     5.071     0  02:10      5.14    0.25    0.35
  C10                  CONDUIT     6.154     0  02:20      3.48    0.63    1.00
  C13                  CONDUIT     4.892     0  02:11      3.10    0.29    0.77
  C18                  CONDUIT     2.550     0  02:15      3.36    0.09    0.60
  C23                  CONDUIT     4.075     0  02:19      2.91    0.45    0.80
  C4                   CONDUIT     2.030     0  02:20      3.06    0.49    0.79
  C7                   CONDUIT     0.592     0  02:15      1.44    0.15    0.63
  C14                  CONDUIT     0.271     0  02:22      2.08    0.02    0.09
  C5                   CONDUIT     0.085     0  02:09      1.73    1.45    1.00
  C8                   CONDUIT     0.127     0  02:45      1.97    1.60    0.86
  C15                  CONDUIT     0.487     0  02:37      3.90    1.55    0.83
  C21                  CONDUIT     0.202     0  02:40      1.91    1.16    0.69
  V4                   ORIFICE     0.080     0  04:50                      1.00
  V5                   ORIFICE     0.039     0  02:21                      1.00
  V1                   ORIFICE     0.271     0  02:21                      1.00
  V6                   ORIFICE     0.175     0  02:15                      1.00
  V3                   ORIFICE     0.190     0  04:40                      1.00
  V2                   ORIFICE     0.138     0  05:50                      1.00
  
  
  ***************************
  Flow Classification Summary
  ***************************
  
  -------------------------------------------------------------------------------------
                      Adjusted    ---------- Fraction of Time in Flow Class ---------- 
                       /Actual         Up    Down  Sub   Sup   Up    Down  Norm  Inlet 
  Conduit               Length    Dry  Dry   Dry   Crit  Crit  Crit  Crit  Ltd   Ctrl  
  -------------------------------------------------------------------------------------
  C1                      1.00   0.00  0.00  0.00  0.58  0.42  0.00  0.00  0.95  0.00
  C6                      1.00   0.00  0.00  0.00  0.12  0.88  0.00  0.00  0.00  0.00
  C2                      1.00   0.00  0.00  0.00  0.83  0.17  0.00  0.00  0.98  0.00
  C9                      1.00   0.00  0.00  0.00  1.00  0.00  0.00  0.00  1.00  0.00
  C16                     1.00   0.00  0.00  0.00  0.72  0.28  0.00  0.00  0.62  0.00
  C3                      1.00   0.00  0.01  0.00  0.05  0.95  0.00  0.00  0.13  0.00
  C19                     1.00   0.00  0.00  0.00  0.99  0.01  0.00  0.00  1.00  0.00
  C11                     1.00   0.00  0.00  0.00  0.16  0.84  0.00  0.00  1.00  0.00
  C20                     1.00   0.00  0.00  0.00  0.73  0.27  0.00  0.00  0.97  0.00
  C22                     1.00   0.00  0.00  0.00  0.93  0.07  0.00  0.00  1.00  0.00
  C12                     1.00   0.00  0.00  0.00  0.88  0.12  0.00  0.00  1.00  0.00
  C17                     1.00   0.00  0.00  0.00  0.70  0.30  0.00  0.00  0.94  0.00
  C10                     1.00   0.00  0.00  0.00  0.94  0.06  0.00  0.00  0.94  0.00
  C13                     1.00   0.00  0.00  0.00  0.87  0.13  0.00  0.00  0.19  0.00
  C18                     1.00   0.00  0.00  0.00  0.93  0.07  0.00  0.00  0.97  0.00
  C23                     1.00   0.00  0.00  0.00  0.88  0.12  0.00  0.00  0.92  0.00
  C4                      1.00   0.00  0.00  0.00  0.94  0.06  0.00  0.00  0.97  0.00
  C7                      1.00   0.00  0.00  0.00  0.94  0.06  0.00  0.00  0.97  0.00
  C14                     1.00   0.00  0.01  0.00  0.01  0.98  0.00  0.00  0.06  0.00
  C5                      1.00   0.00  0.00  0.00  0.95  0.05  0.00  0.00  0.87  0.00
  C8                      1.00   0.00  0.00  0.00  0.11  0.89  0.00  0.00  0.00  0.00
  C15                     1.00   0.00  0.00  0.00  0.00  1.00  0.00  0.00  0.00  0.00
  C21                     1.00   0.00  0.00  0.00  0.01  0.99  0.00  0.00  0.00  0.00
  
  
  *************************
  Conduit Surcharge Summary
  *************************
  
  ----------------------------------------------------------------------------
                                                           Hours        Hours 
                         --------- Hours Full --------   Above Full   Capacity
  Conduit                Both Ends  Upstream  Dnstream   Normal Flow   Limited
  ----------------------------------------------------------------------------
  C6                          0.01      0.71      0.01      0.65         0.01
  C9                          0.01      0.01      0.37      0.01         0.01
  C22                         0.01      0.01      0.09      0.01         0.01
  C10                         0.07      0.07      5.73      0.01         0.01
  C13                         0.01      0.01      5.75      0.01         0.01
  C18                         0.01      0.01      5.68      0.01         0.01
  C23                         0.01      0.01      5.64      0.01         0.01
  C4                          0.01      0.01      5.69      0.01         0.01
  C7                          0.01      0.01      5.68      0.01         0.01
  C5                          0.71      0.77      0.82      0.77         0.69
  C8                          0.01      0.83      0.01      0.84         0.01
  C15                         0.01      0.82      0.01      0.83         0.01
  C21                         0.01      0.54      0.01      0.52         0.01
  

  Analysis begun on:  Fri Oct 18 10:07:20 2024
  Analysis ended on:  Fri Oct 18 10:07:21 2024
  Total elapsed time: 00:00:01