
  EPA STORM WATER MANAGEMENT MODEL - VERSION 5.2 (Build 5.2.4)
  PYSWMM TOOLKIT API - VERSION v1.0 (2023-11-27)
  ------------------------------------------------------------

  WARNING 04: minimum elevation drop used for Conduit WS02004404WS02004405
  WARNING 03: negative offset ignored for Link YS02001904YS02001907
  
  ****************
  Analysis Options
  ****************
  Flow Units ............... LPS
  Process Models:
    Rainfall/Runoff ........ YES
    RDII ................... NO
    Snowmelt ............... NO
    Groundwater ............ NO
    Flow Routing ........... YES
    Ponding Allowed ........ NO
    Water Quality .......... NO
  Infiltration Method ...... HORTON
  Flow Routing Method ...... DYNWAVE
  Surcharge Method ......... EXTRAN
  Starting Date ............ 08/28/2015 08:00:00
  Ending Date .............. 08/28/2015 16:00:00
  Antecedent Dry Days ...... 8.0
  Report Time Step ......... 00:01:00
  Wet Time Step ............ 00:01:00
  Dry Time Step ............ 00:01:00
  Routing Time Step ........ 30.00 sec
  Variable Time Step ....... YES
  Maximum Trials ........... 8
  Number of Threads ........ 4
  Head Tolerance ........... 0.001500 m
  
  
  **************************        Volume         Depth
  Runoff Quantity Continuity     hectare-m            mm
  **************************     ---------       -------
  Total Precipitation ......         3.137        94.582
  Evaporation Loss .........         0.000         0.000
  Infiltration Loss ........         0.104         3.150
  Surface Runoff ...........         3.000        90.452
  Final Storage ............         0.033         0.998
  Continuity Error (%) .....        -0.018
  
  
  **************************        Volume        Volume
  Flow Routing Continuity        hectare-m      10^6 ltr
  **************************     ---------     ---------
  Dry Weather Inflow .......         0.025         0.248
  Wet Weather Inflow .......         3.000        29.999
  Groundwater Inflow .......         0.000         0.000
  RDII Inflow ..............         0.000         0.000
  External Inflow ..........         0.083         0.825
  External Outflow .........         2.344        23.439
  Flooding Loss ............         1.106        11.063
  Evaporation Loss .........         0.000         0.000
  Exfiltration Loss ........         0.000         0.000
  Initial Stored Volume ....         0.243         2.431
  Final Stored Volume ......         0.039         0.391
  Continuity Error (%) .....        -4.151
  
  
  *************************
  Highest Continuity Errors
  *************************
  Node JK-storage (-23.30%)
  Node WS02006256 (-13.36%)
  Node YS02001884 (5.24%)
  Node YS02001583 (-4.28%)
  
  
  ***************************
  Time-Step Critical Elements
  ***************************
  Link YS02001793JiankangQianchi (42.07%)
  Link WS02006238WS02006235 (27.84%)
  Link WS02003066WSF200 (5.70%)
  Link WS02004404WS02004405 (5.54%)
  Link WS02006235WS02006234 (5.10%)
  
  
  ********************************
  Highest Flow Instability Indexes
  ********************************
  Link WS02006256WS02006235 (58)
  Link WS02006252WS02006251 (50)
  Link WS02006235WS02006234 (43)
  Link WS02006238WS02006235 (42)
  Link WS02006229WS02006228 (40)
  
  
  *********************************
  Most Frequent Nonconverging Nodes
  *********************************
  Node CC-1 (53.83%)
  Node CC-2 (53.83%)
  Node JK-1 (53.83%)
  Node JK-2 (53.83%)
  Node WSC (53.83%)
  
  
  *************************
  Routing Time Step Summary
  *************************
  Minimum Time Step           :     0.00 sec
  Average Time Step           :     2.52 sec
  Maximum Time Step           :     6.43 sec
  % of Time in Steady State   :     0.00
  Average Iterations per Step :     5.77
  % of Steps Not Converging   :    53.83
  Time Step Frequencies       :
     30.000 - 13.228 sec      :     0.00 %
     13.228 -  5.833 sec      :     5.45 %
      5.833 -  2.572 sec      :    33.20 %
      2.572 -  1.134 sec      :    39.54 %
      1.134 -  0.500 sec      :    21.80 %
  
  
  ***************************
  Subcatchment Runoff Summary
  ***************************
  
  ------------------------------------------------------------------------------------------------------------------------------
                            Total      Total      Total      Total     Imperv       Perv      Total       Total     Peak  Runoff
                           Precip      Runon       Evap      Infil     Runoff     Runoff     Runoff      Runoff   Runoff   Coeff
  Subcatchment                 mm         mm         mm         mm         mm         mm         mm    10^6 ltr      LPS
  ------------------------------------------------------------------------------------------------------------------------------
  sub60                     94.58       0.00       0.00       1.89      82.03       9.47      91.50        1.20   742.62   0.967
  sub61                     94.58       0.00       0.00       2.73      77.38      13.35      90.72        1.66  1032.42   0.959
  sub62                     94.58       0.00       0.00       1.26      85.73       6.31      92.04        2.52  1473.36   0.973
  sub63                     94.58       0.00       0.00       5.05      66.19      22.39      88.57        2.01  1189.06   0.936
  sub64                     94.58       0.00       0.00       2.55      79.19      11.64      90.83        2.18  1219.11   0.960
  sub65                     94.58       0.00       0.00       2.21      81.03      10.09      91.12        2.51  1365.05   0.963
  sub66                     94.58       0.00       0.00       6.26      66.07      21.18      87.25        4.07  1864.38   0.922
  sub67                     94.58       0.00       0.00       1.21      85.78       6.36      92.14        1.71  1108.90   0.974
  sub68                     94.58       0.00       0.00       2.27      80.16      10.98      91.14        2.51  1506.35   0.964
  sub69                     94.58       0.00       0.00       2.04      80.28      12.15      92.43        3.42  1813.93   0.977
  sub70                     94.58       0.00       0.00       6.82      62.26      25.34      87.60        2.53  1051.62   0.926
  sub71                     94.58       0.00       0.00       1.29      85.69       6.28      91.97        2.40  1315.29   0.972
  sub72                     94.58       0.00       0.00       1.15      86.55       5.47      92.03        1.27   647.12   0.973
  
  
  ******************
  Node Depth Summary
  ******************
  
  ---------------------------------------------------------------------------------
                                 Average  Maximum  Maximum  Time of Max    Reported
                                   Depth    Depth      HGL   Occurrence   Max Depth
  Node                 Type       Meters   Meters   Meters  days hr:min      Meters
  ---------------------------------------------------------------------------------
  WS02003060           JUNCTION     0.24     0.37     5.30     0  02:22        0.37
  WS02003066           JUNCTION     0.19     0.29     5.84     0  02:22        0.29
  WS02003067           JUNCTION     0.50     0.69     6.01     0  02:22        0.69
  WS02003069           JUNCTION     0.26     0.41     5.00     0  02:23        0.41
  WS02003072           JUNCTION     0.32     0.48     4.86     0  02:23        0.48
  WS02003073           JUNCTION     0.18     0.29     4.35     0  02:18        0.29
  WS02004401           JUNCTION     0.59     0.82     6.82     0  02:19        0.82
  WS02004402           JUNCTION     0.62     0.85     6.81     0  02:19        0.85
  WS02004403           JUNCTION     0.64     0.87     6.80     0  02:19        0.87
  WS02004404           JUNCTION     0.72     0.94     6.79     0  02:19        0.94
  WS02004405           JUNCTION     0.71     0.93     6.78     0  02:19        0.93
  WS02004406           JUNCTION     0.72     0.94     6.77     0  02:20        0.94
  WS02004407           JUNCTION     0.18     0.29     6.60     0  02:20        0.28
  WS02004409           JUNCTION     0.40     0.64     6.41     0  02:20        0.64
  WS02004410           JUNCTION     0.42     0.66     6.38     0  02:21        0.66
  WS02004411           JUNCTION     0.44     0.67     6.35     0  02:21        0.67
  WS02004412           JUNCTION     0.46     0.68     6.32     0  02:21        0.68
  WS02004413           JUNCTION     0.61     0.84     6.31     0  02:21        0.84
  WS02006109           JUNCTION     0.67     0.94     7.56     0  02:18        0.93
  WS02006110           JUNCTION     0.67     0.90     7.48     0  02:18        0.90
  WS02006111           JUNCTION     0.18     0.28     6.98     0  02:18        0.28
  WS02006112           JUNCTION     0.76     1.02     6.91     0  02:01        1.02
  WS02006113           JUNCTION     0.28     0.44     7.33     0  02:18        0.44
  WS02006115           JUNCTION     0.48     0.72     6.86     0  02:18        0.72
  WS02006116           JUNCTION     0.57     0.80     6.84     0  02:19        0.80
  WS02006228           JUNCTION     0.67     0.98     7.63     0  02:18        0.96
  WS02006229           JUNCTION     0.65     0.97     7.67     0  02:18        0.96
  WS02006230           JUNCTION     0.66     1.05     7.79     0  02:18        1.03
  WS02006231           JUNCTION     0.45     1.11     8.23     0  02:08        0.78
  WS02006232           JUNCTION     0.59     2.18     9.22     0  02:11        2.18
  WS02006234           JUNCTION     0.53     1.96     9.12     0  02:08        1.96
  WS02006235           JUNCTION     0.57     2.00     9.16     0  02:08        2.00
  WS02006238           JUNCTION     0.60     2.15     9.29     0  02:08        2.15
  WS02006239           JUNCTION     0.58     2.03     9.24     0  02:08        2.03
  WS02006240           JUNCTION     0.54     2.10     9.39     0  02:18        2.10
  WS02006242           JUNCTION     0.62     1.55     8.82     0  01:58        1.55
  WS02006243           JUNCTION     0.55     1.48     8.90     0  02:02        1.48
  WS02006245           JUNCTION     0.56     1.56     9.04     0  02:02        1.56
  WS02006247           JUNCTION     0.58     1.47     8.97     0  02:02        1.47
  WS02006248           JUNCTION     0.55     1.10     8.69     0  01:51        1.10
  WS02006249           JUNCTION     0.58     1.09     8.69     0  01:47        1.09
  WS02006251           JUNCTION     0.58     1.15     8.82     0  02:34        1.12
  WS02006252           JUNCTION     0.37     1.50     9.74     0  00:00        0.73
  WS02006256           JUNCTION     1.03     2.35     9.28     0  00:00        2.35
  WSF200               JUNCTION     0.17     0.28     5.51     0  02:22        0.28
  YS02001580           JUNCTION     0.22     1.05     9.59     0  01:46        1.05
  YS02001583           JUNCTION     0.25     1.14     9.64     0  01:46        1.02
  YS02001586           JUNCTION     0.39     1.13     9.30     0  01:46        1.13
  YS02001590           JUNCTION     0.52     1.40     9.26     0  01:46        1.40
  YS02001593           JUNCTION     0.45     1.33     9.19     0  01:47        1.33
  YS02001596           JUNCTION     0.60     1.70     9.12     0  02:18        1.70
  YS02001600           JUNCTION     0.71     1.87     9.00     0  01:47        1.87
  YS02001601           JUNCTION     0.90     2.06     8.90     0  01:46        2.06
  YS02001602           JUNCTION     0.79     1.87     8.77     0  01:46        1.87
  YS02001605           JUNCTION     0.72     1.78     8.68     0  01:46        1.78
  YS02001607           JUNCTION     0.67     1.68     8.53     0  02:02        1.68
  YS02001610           JUNCTION     0.71     1.68     8.48     0  01:46        1.68
  YS02001613           JUNCTION     0.67     1.69     8.53     0  02:11        1.67
  YS02001616           JUNCTION     0.60     1.61     8.52     0  01:59        1.61
  YS02001619           JUNCTION     0.58     1.61     8.54     0  01:58        1.61
  YS02001622           JUNCTION     0.57     1.62     8.52     0  02:02        1.58
  YS02001625           JUNCTION     0.80     1.78     8.38     0  01:51        1.78
  YS02001629           JUNCTION     0.72     1.85     8.40     0  01:51        1.85
  YS02001633           JUNCTION     0.79     2.08     8.53     0  01:58        2.08
  YS02001641           JUNCTION     0.73     2.10     8.54     0  02:18        2.10
  YS02001644           JUNCTION     0.72     1.92     8.35     0  01:54        1.92
  YS02001647           JUNCTION     0.49     1.90     8.51     0  02:18        1.90
  YS02001649           JUNCTION     0.54     2.05     8.44     0  02:18        2.05
  YS02001652           JUNCTION     0.42     1.96     8.56     0  02:18        1.96
  YS02001655           JUNCTION     0.32     1.88     8.73     0  01:53        1.68
  YS02001658           JUNCTION     0.23     1.49     8.63     0  02:02        1.46
  YS02001661           JUNCTION     0.23     1.31     8.71     0  01:58        1.27
  YS02001664           JUNCTION     0.11     0.77     8.69     0  02:01        0.77
  YS02001745           JUNCTION     0.12     0.90     8.42     0  02:01        0.90
  YS02001748           JUNCTION     0.20     1.87     8.95     0  01:55        1.32
  YS02001751           JUNCTION     0.26     1.76     8.63     0  01:53        1.48
  YS02001754           JUNCTION     0.35     1.81     8.42     0  01:55        1.74
  YS02001757           JUNCTION     0.55     2.06     8.32     0  02:00        2.06
  YS02001759           JUNCTION     0.49     2.10     8.47     0  02:00        2.10
  YS02001762           JUNCTION     0.48     2.07     8.47     0  02:00        2.07
  YS02001765           JUNCTION     0.46     2.01     8.46     0  02:00        2.01
  YS02001767           JUNCTION     0.45     2.03     8.52     0  02:02        2.03
  YS02001770           JUNCTION     0.46     1.95     8.44     0  01:58        1.95
  YS02001774           JUNCTION     0.52     2.05     8.47     0  02:02        2.05
  YS02001779           JUNCTION     0.34     1.68     8.37     0  01:52        1.68
  YS02001783           JUNCTION     0.42     1.30     7.44     0  02:02        1.30
  YS02001784           JUNCTION     0.41     1.16     7.23     0  02:02        1.13
  YS02001786           JUNCTION     0.34     0.91     6.94     0  01:51        0.88
  YS02001788           JUNCTION     0.25     0.63     6.60     0  01:59        0.62
  YS02001790           JUNCTION     0.29     0.72     6.37     0  01:55        0.72
  YS02001791           JUNCTION     0.18     0.44     5.91     0  01:55        0.44
  YS02001793           JUNCTION     0.11     0.26     5.09     0  02:01        0.25
  YS02001882           JUNCTION     0.52     1.83     8.55     0  02:02        1.70
  YS02001884           JUNCTION     0.60     1.92     8.54     0  02:02        1.81
  YS02001887           JUNCTION     0.68     1.93     8.47     0  02:02        1.90
  YS02001890           JUNCTION     0.71     1.81     8.32     0  01:51        1.81
  YS02001895           JUNCTION     0.49     1.59     8.34     0  02:08        1.59
  YS02001898           JUNCTION     0.49     1.62     8.36     0  02:02        1.57
  YS02001901           JUNCTION     0.60     1.71     8.32     0  02:02        1.68
  YS02001904           JUNCTION     0.58     1.67     8.30     0  02:02        1.64
  YS02001907           JUNCTION     0.88     1.96     8.25     0  01:51        1.96
  YS02001910           JUNCTION     0.71     2.10     8.61     0  02:02        2.10
  YS02001915           JUNCTION     0.54     2.00     8.72     0  02:01        2.00
  YS02001918           JUNCTION     0.35     1.81     8.88     0  01:52        1.81
  YS02001920           JUNCTION     0.43     2.14     9.15     0  02:02        2.14
  YS02001923           JUNCTION     0.28     2.03     9.29     0  01:52        1.73
  YS02001926           JUNCTION     0.29     1.90     9.35     0  01:52        1.39
  YS02001929           JUNCTION     0.19     1.78     9.47     0  01:52        1.17
  YS02006553           JUNCTION     0.89     2.02     8.31     0  01:58        2.02
  YS02006556           JUNCTION     0.86     2.39     8.70     0  02:02        2.39
  YS02006558           JUNCTION     0.90     2.30     8.56     0  02:02        2.30
  YS02006561           JUNCTION     0.27     1.00     7.66     0  01:51        0.91
  YS02163301           JUNCTION     0.74     2.00     8.52     0  02:02        2.00
  YS02163601           JUNCTION     0.80     2.08     8.48     0  02:18        2.08
  YS02164001           JUNCTION     0.73     2.10     8.56     0  02:18        2.10
  CC-1                 OUTFALL      0.00     0.00     0.00     0  00:00        0.00
  CC-2                 OUTFALL      0.00     0.00     0.00     0  00:00        0.00
  JK-1                 OUTFALL      0.00     0.00     0.00     0  00:00        0.00
  JK-2                 OUTFALL      0.00     0.00     0.00     0  00:00        0.00
  WSC                  OUTFALL      0.18     0.29     0.96     0  02:18        0.29
  CC-storage           STORAGE      0.40     1.26     6.76     0  02:46        1.26
  JK-storage           STORAGE      0.02     2.99     3.79     0  00:00        0.68
  
  
  *******************
  Node Inflow Summary
  *******************
  
  -------------------------------------------------------------------------------------------------
                                  Maximum  Maximum                  Lateral       Total        Flow
                                  Lateral    Total  Time of Max      Inflow      Inflow     Balance
                                   Inflow   Inflow   Occurrence      Volume      Volume       Error
  Node                 Type           LPS      LPS  days hr:min    10^6 ltr    10^6 ltr     Percent
  -------------------------------------------------------------------------------------------------
  WS02003060           JUNCTION     16.53   516.65     0  02:22       0.471        5.01       0.047
  WS02003066           JUNCTION      0.00   500.03     0  02:22           0        4.55       0.034
  WS02003067           JUNCTION      0.00   499.97     0  02:21           0        4.55       0.093
  WS02003069           JUNCTION      0.32   516.87     0  02:22     0.00912        5.02       0.086
  WS02003072           JUNCTION      0.00   516.54     0  02:23           0        5.02       0.152
  WS02003073           JUNCTION      1.82   518.16     0  02:18      0.0519        5.06       0.120
  WS02004401           JUNCTION      0.00   502.62     0  02:19           0        4.66       0.229
  WS02004402           JUNCTION      0.00   502.30     0  02:19           0        4.64       0.231
  WS02004403           JUNCTION      0.00   502.16     0  02:19           0        4.63       0.225
  WS02004404           JUNCTION      0.16   501.77     0  02:19     0.00462        4.63       0.187
  WS02004405           JUNCTION      0.04   501.75     0  02:19     0.00109        4.62       0.275
  WS02004406           JUNCTION      0.00   502.01     0  02:19           0        4.61       0.466
  WS02004407           JUNCTION      0.00   501.34     0  02:20           0        4.59       0.027
  WS02004409           JUNCTION      0.00   500.99     0  02:20           0        4.59       0.064
  WS02004410           JUNCTION      0.00   500.77     0  02:20           0        4.58       0.105
  WS02004411           JUNCTION      0.00   500.56     0  02:21           0        4.58       0.129
  WS02004412           JUNCTION      0.00   500.49     0  02:21           0        4.57       0.170
  WS02004413           JUNCTION      0.00   500.29     0  02:21           0        4.56       0.314
  WS02006109           JUNCTION      1.23   507.47     0  02:18      0.0351        4.71       0.233
  WS02006110           JUNCTION      0.00   507.55     0  02:18           0         4.7       0.157
  WS02006111           JUNCTION      0.00   519.57     0  02:18           0        4.69       0.027
  WS02006112           JUNCTION      0.00   506.10     0  02:18           0        4.69       0.444
  WS02006113           JUNCTION      0.00   505.46     0  02:18           0        4.69       0.038
  WS02006115           JUNCTION      0.00   509.55     0  02:18           0        4.67       0.161
  WS02006116           JUNCTION      0.00   503.65     0  02:18           0        4.66       0.071
  WS02006228           JUNCTION      0.00   506.08     0  02:18           0        4.68       0.106
  WS02006229           JUNCTION      0.00   505.62     0  02:18           0        4.68       0.105
  WS02006230           JUNCTION     10.28   543.89     0  02:18       0.293        4.69       0.132
  WS02006231           JUNCTION      0.00   525.40     0  02:18           0         4.4       0.045
  WS02006232           JUNCTION      0.00   523.20     0  02:18           0        4.41       0.171
  WS02006234           JUNCTION      0.00   515.64     0  02:18           0        4.39      -0.266
  WS02006235           JUNCTION      0.00   508.85     0  02:17           0        4.57       0.107
  WS02006238           JUNCTION      0.00   416.31     0  02:49           0        3.88       0.183
  WS02006239           JUNCTION      0.00   415.75     0  02:45           0        3.73      -0.100
  WS02006240           JUNCTION      0.00   416.71     0  02:45           0         3.7      -0.065
  WS02006242           JUNCTION      0.00   417.08     0  02:45           0        3.69      -0.018
  WS02006243           JUNCTION      0.00   417.15     0  02:45           0        3.69      -0.184
  WS02006245           JUNCTION      0.00   417.19     0  02:45           0         3.7       0.370
  WS02006247           JUNCTION      0.00   422.70     0  01:42           0         3.7      -0.036
  WS02006248           JUNCTION      0.00   421.47     0  01:43           0        3.69      -0.098
  WS02006249           JUNCTION      0.00   461.19     0  01:40           0        3.74       0.561
  WS02006251           JUNCTION      0.08   406.03     0  01:32     0.00219        3.75       0.024
  WS02006252           JUNCTION      0.00   400.00     0  00:00           0        3.73      -0.356
  WS02006256           JUNCTION      0.00   300.00     0  00:00           0        1.01     -11.784
  WSF200               JUNCTION      0.00   500.00     0  02:22           0        4.54       0.012
  YS02001580           JUNCTION      0.00    75.50     0  01:46           0     0.00411       1.854
  YS02001583           JUNCTION      0.00   129.31     0  01:46           0      0.0154      -4.107
  YS02001586           JUNCTION   1051.62  1051.62     0  02:04        2.53        2.54       0.043
  YS02001590           JUNCTION      0.00   320.42     0  02:02           0        1.69      -0.027
  YS02001593           JUNCTION      0.00   320.71     0  02:02           0        1.69       0.013
  YS02001596           JUNCTION      0.00   317.88     0  02:08           0        1.69       0.005
  YS02001600           JUNCTION      0.00   318.04     0  02:02           0        1.69       0.017
  YS02001601           JUNCTION   1813.93  2132.24     0  02:02        3.42        5.11       0.018
  YS02001602           JUNCTION      0.00   504.14     0  02:42           0        2.78       0.020
  YS02001605           JUNCTION      0.00   504.36     0  02:42           0        2.63       0.024
  YS02001607           JUNCTION      0.00   504.40     0  02:42           0        2.63       0.077
  YS02001610           JUNCTION      0.00   947.21     0  02:06           0        3.22       0.079
  YS02001613           JUNCTION      0.00   610.77     0  02:07           0        2.56       0.062
  YS02001616           JUNCTION      0.00   610.97     0  02:06           0        2.56       0.019
  YS02001619           JUNCTION   1864.38  1864.38     0  02:03        4.07        6.03       0.002
  YS02001622           JUNCTION      0.00  1066.30     0  02:02           0        5.38       0.002
  YS02001625           JUNCTION      0.00  1504.86     0  02:07           0        5.76       0.161
  YS02001629           JUNCTION      0.00   938.55     0  02:30           0        4.49       0.023
  YS02001633           JUNCTION   1365.25  1365.25     0  02:02        2.51        6.51       0.056
  YS02001641           JUNCTION      0.00  1353.62     0  01:51           0        6.02       0.048
  YS02001644           JUNCTION   1219.15  1886.92     0  02:02        2.18         8.2       0.042
  YS02001647           JUNCTION      0.00  1742.17     0  01:51           0        7.28       0.006
  YS02001649           JUNCTION      0.00  1992.47     0  01:52           0        9.29       0.006
  YS02001652           JUNCTION      0.00  1201.09     0  02:02           0        2.01      -0.076
  YS02001655           JUNCTION      0.15  1202.72     0  02:02     0.00439        2.01       0.016
  YS02001658           JUNCTION      0.00  1204.17     0  02:02           0        2.01       0.000
  YS02001661           JUNCTION      0.00  1227.63     0  02:02           0        2.01       0.008
  YS02001664           JUNCTION   1189.06  1189.06     0  02:02        2.01        2.01      -0.004
  YS02001745           JUNCTION    742.62   742.62     0  02:02         1.2         1.2       0.081
  YS02001748           JUNCTION      0.04   764.60     0  02:02     0.00128         1.2      -0.100
  YS02001751           JUNCTION      0.01   757.92     0  02:01    0.000313        1.21       0.020
  YS02001754           JUNCTION      0.26   757.98     0  02:01     0.00741        1.22      -0.060
  YS02001757           JUNCTION      0.00  3536.74     0  02:03           0        14.3       0.037
  YS02001759           JUNCTION   1032.46  1496.54     0  02:02        1.67        3.74       0.000
  YS02001762           JUNCTION      0.00   832.32     0  02:10           0        2.08       0.009
  YS02001765           JUNCTION      0.00   832.09     0  02:10           0        2.08       0.013
  YS02001767           JUNCTION      0.54   831.87     0  02:10      0.0152        2.08       0.008
  YS02001770           JUNCTION   1473.51  1473.51     0  02:02        2.53        2.57       0.002
  YS02001774           JUNCTION      0.00   850.33     0  02:03           0       0.501       0.277
  YS02001779           JUNCTION      0.01   850.50     0  02:03    0.000142       0.457      -0.067
  YS02001783           JUNCTION      0.00  1172.38     0  02:02           0        5.18       0.005
  YS02001784           JUNCTION      1.06  1175.58     0  02:02      0.0302        5.21       0.011
  YS02001786           JUNCTION      0.06  1176.47     0  02:02      0.0016        5.21       0.014
  YS02001788           JUNCTION      0.07  1173.15     0  02:02     0.00202        5.21       0.006
  YS02001790           JUNCTION      0.15  1182.76     0  01:59     0.00442        5.22      -0.002
  YS02001791           JUNCTION      0.00  1292.58     0  02:01           0        5.22      -0.001
  YS02001793           JUNCTION      0.00  1255.71     0  02:01           0        5.22       0.010
  YS02001882           JUNCTION      0.00    50.88     0  02:02           0       0.013       5.734
  YS02001884           JUNCTION      0.00    43.51     0  01:47           0      0.0487       5.534
  YS02001887           JUNCTION   1109.35  1110.01     0  02:01        1.73        1.76       0.257
  YS02001890           JUNCTION      0.00  1110.23     0  02:01           0        1.72       0.302
  YS02001895           JUNCTION      0.00   529.55     0  02:02           0        1.45       0.126
  YS02001898           JUNCTION      0.00   530.58     0  02:02           0        1.45       0.017
  YS02001901           JUNCTION      0.00   517.43     0  02:04           0        1.45       0.232
  YS02001904           JUNCTION      0.00   518.47     0  02:02           0        1.46       0.200
  YS02001907           JUNCTION      0.00  2828.07     0  02:02           0        5.29       0.344
  YS02001910           JUNCTION      0.00  1964.63     0  02:02           0        3.75       0.194
  YS02001915           JUNCTION   1315.31  1964.28     0  02:02        2.41        3.78       0.048
  YS02001918           JUNCTION      0.00   652.01     0  02:03           0        1.39       0.022
  YS02001920           JUNCTION      2.87   652.27     0  02:03      0.0818        1.38       0.080
  YS02001923           JUNCTION      0.04   648.11     0  02:03     0.00107        1.29      -0.030
  YS02001926           JUNCTION      0.05   648.18     0  02:03     0.00149        1.27       0.023
  YS02001929           JUNCTION    647.12   647.12     0  02:03        1.27        1.27      -0.022
  YS02006553           JUNCTION      0.00   796.46     0  02:25           0        2.88       0.416
  YS02006556           JUNCTION      0.00   794.29     0  02:25           0        2.89       0.284
  YS02006558           JUNCTION   1507.23  1507.23     0  02:02        2.53        5.31       0.066
  YS02006561           JUNCTION      0.00  1174.70     0  02:02           0        5.18      -0.001
  YS02163301           JUNCTION      0.00   938.61     0  02:30           0        4.49       0.038
  YS02163601           JUNCTION      0.11  1354.97     0  01:51     0.00313        6.02       0.085
  YS02164001           JUNCTION      0.00  1354.77     0  01:51           0        6.02       0.043
  CC-1                 OUTFALL       0.00   683.00     0  00:00           0        6.37       0.000
  CC-2                 OUTFALL       0.00   683.00     0  00:00           0        6.37       0.000
  JK-1                 OUTFALL       0.00  1000.00     0  00:00           0        2.82       0.000
  JK-2                 OUTFALL       0.00  1000.00     0  00:00           0        2.82       0.000
  WSC                  OUTFALL       0.00   518.05     0  02:18           0        5.06       0.000
  CC-storage           STORAGE       0.00  3536.34     0  02:03           0        16.5      -0.313
  JK-storage           STORAGE       0.00  1303.25     0  02:01           0        5.37     -18.895
  
  
  **********************
  Node Surcharge Summary
  **********************
  
  Surcharging occurs when water rises above the top of the highest conduit.
  ---------------------------------------------------------------------
                                               Max. Height   Min. Depth
                                   Hours       Above Crown    Below Rim
  Node                 Type      Surcharged         Meters       Meters
  ---------------------------------------------------------------------
  WS02006109           JUNCTION        2.10          0.120        1.700
  WS02006112           JUNCTION        0.62          0.024        1.656
  WS02006228           JUNCTION        2.08          0.146        2.054
  WS02006229           JUNCTION        2.13          0.174        2.276
  WS02006231           JUNCTION        0.70          0.398        1.132
  WS02006232           JUNCTION        2.20          1.480        0.000
  WS02006234           JUNCTION        1.64          1.240        0.000
  WS02006235           JUNCTION        2.11          1.290        0.000
  WS02006238           JUNCTION        2.16          1.430        0.000
  WS02006239           JUNCTION        2.11          1.290        0.000
  WS02006240           JUNCTION        2.12          1.390        0.000
  WS02006242           JUNCTION        2.22          0.820        0.000
  WS02006243           JUNCTION        2.13          0.770        0.000
  WS02006245           JUNCTION        2.13          0.850        0.000
  WS02006247           JUNCTION        2.15          0.760        0.000
  WS02006248           JUNCTION        2.12          0.380        0.000
  WS02006249           JUNCTION        2.14          0.390        0.000
  WS02006251           JUNCTION        0.96          0.116        1.064
  WS02006252           JUNCTION        2.59          1.100        0.000
  WS02006256           JUNCTION        6.77          2.050        0.000
  YS02001580           JUNCTION        0.92          0.450        0.000
  YS02001583           JUNCTION        0.92          0.500        0.000
  YS02001586           JUNCTION        1.04          0.510        0.000
  YS02001590           JUNCTION        1.14          0.750        0.000
  YS02001593           JUNCTION        1.14          0.710        0.130
  YS02001596           JUNCTION        1.29          0.972        0.098
  YS02001600           JUNCTION        1.46          1.190        0.000
  YS02001601           JUNCTION        1.75          1.440        0.000
  YS02001602           JUNCTION        1.66          1.270        0.000
  YS02001605           JUNCTION        1.61          1.180        0.000
  YS02001607           JUNCTION        1.06          0.680        0.000
  YS02001610           JUNCTION        1.10          0.680        0.000
  YS02001613           JUNCTION        1.05          0.691        0.009
  YS02001616           JUNCTION        0.99          0.610        0.000
  YS02001619           JUNCTION        0.97          0.610        0.000
  YS02001622           JUNCTION        0.96          0.620        0.000
  YS02001625           JUNCTION        1.22          0.780        0.000
  YS02001629           JUNCTION        0.85          0.470        0.000
  YS02001633           JUNCTION        1.22          1.060        0.000
  YS02001641           JUNCTION        1.07          1.100        0.000
  YS02001644           JUNCTION        1.00          0.920        0.000
  YS02001647           JUNCTION        0.69          0.900        0.000
  YS02001649           JUNCTION        0.79          1.050        0.000
  YS02001652           JUNCTION        0.56          0.930        0.200
  YS02001655           JUNCTION        0.40          0.878        0.322
  YS02001658           JUNCTION        0.30          0.490        0.810
  YS02001661           JUNCTION        0.12          0.238        1.152
  YS02001748           JUNCTION        0.20          0.795        0.395
  YS02001751           JUNCTION        0.33          0.755        0.445
  YS02001754           JUNCTION        0.41          0.759        0.391
  YS02001757           JUNCTION        0.80          1.063        0.147
  YS02001759           JUNCTION        0.70          1.104        0.106
  YS02001762           JUNCTION        0.66          1.072        0.078
  YS02001765           JUNCTION        0.60          1.014        0.086
  YS02001767           JUNCTION        0.57          1.030        0.000
  YS02001770           JUNCTION        0.55          0.920        0.000
  YS02001774           JUNCTION        0.65          1.050        0.000
  YS02001779           JUNCTION        0.43          0.680        0.000
  YS02001783           JUNCTION        0.78          0.501        1.099
  YS02001784           JUNCTION        0.75          0.359        1.131
  YS02001786           JUNCTION        0.62          0.113        1.317
  YS02001882           JUNCTION        0.71          0.830        0.000
  YS02001884           JUNCTION        0.72          0.862        0.008
  YS02001887           JUNCTION        0.77          0.877        0.073
  YS02001890           JUNCTION        0.79          0.760        0.000
  YS02001895           JUNCTION        0.70          0.592        0.158
  YS02001898           JUNCTION        0.69          0.592        0.148
  YS02001901           JUNCTION        0.75          0.712        0.158
  YS02001904           JUNCTION        0.74          0.666        0.184
  YS02001907           JUNCTION        1.07          0.950        0.000
  YS02001910           JUNCTION        0.82          1.100        0.000
  YS02001915           JUNCTION        0.71          1.000        0.000
  YS02001918           JUNCTION        0.60          0.810        0.000
  YS02001920           JUNCTION        0.62          1.140        0.000
  YS02001923           JUNCTION        0.22          0.820        0.000
  YS02001926           JUNCTION        0.28          0.900        0.000
  YS02001929           JUNCTION        0.11          0.780        0.000
  YS02006553           JUNCTION        1.10          1.023        0.167
  YS02006556           JUNCTION        0.94          1.350        0.000
  YS02006558           JUNCTION        0.93          1.197        0.203
  YS02006561           JUNCTION        0.56          0.197        0.953
  YS02163301           JUNCTION        1.20          0.998        0.032
  YS02163601           JUNCTION        1.26          1.080        0.000
  YS02164001           JUNCTION        1.10          1.100        0.000
  
  
  *********************
  Node Flooding Summary
  *********************
  
  Flooding refers to all water that overflows a node, whether it ponds or not.
  --------------------------------------------------------------------------
                                                             Total   Maximum
                                 Maximum   Time of Max       Flood    Ponded
                        Hours       Rate    Occurrence      Volume     Depth
  Node                 Flooded       LPS   days hr:min    10^6 ltr    Meters
  --------------------------------------------------------------------------
  WS02006232              0.01      1.04      0  02:11       0.000     0.000
  WS02006234              0.01      7.33      0  02:18       0.000     0.000
  WS02006235              0.01      8.04      0  02:18       0.000     0.000
  WS02006238              0.01      6.83      0  02:35       0.000     0.000
  WS02006239              0.01      3.43      0  02:35       0.000     0.000
  WS02006240              0.01      2.58      0  02:35       0.000     0.000
  WS02006242              0.01      3.39      0  02:35       0.000     0.000
  WS02006243              0.01      0.42      0  02:02       0.000     0.000
  WS02006245              0.01      0.75      0  02:02       0.000     0.000
  WS02006247              0.01      0.77      0  02:02       0.000     0.000
  WS02006248              0.01     29.08      0  02:18       0.000     0.000
  WS02006249              0.73     28.16      0  02:18       0.029     0.000
  WS02006252              0.01    275.36      0  01:36       0.002     0.000
  WS02006256              0.97    293.19      0  00:00       0.409     0.000
  YS02001580              0.01     40.74      0  01:46       0.000     0.000
  YS02001583              0.01     57.62      0  01:46       0.000     0.000
  YS02001586              0.75    734.06      0  02:04       0.837     0.000
  YS02001590              0.01      6.17      0  01:46       0.000     0.000
  YS02001600              0.01      1.66      0  01:47       0.000     0.000
  YS02001601              0.94   1734.31      0  02:02       2.333     0.000
  YS02001602              0.72     61.90      0  02:16       0.148     0.000
  YS02001605              0.01      0.81      0  01:46       0.000     0.000
  YS02001607              0.01      0.07      0  02:02       0.000     0.000
  YS02001610              0.65    947.11      0  02:06       1.255     0.000
  YS02001616              0.13     21.35      0  02:02       0.001     0.000
  YS02001619              0.14    207.51      0  02:03       0.060     0.000
  YS02001622              0.01     12.83      0  02:02       0.000     0.000
  YS02001625              0.56   1504.77      0  02:07       1.749     0.000
  YS02001629              0.25    264.78      0  02:02       0.114     0.000
  YS02001633              0.01      0.78      0  02:02       0.000     0.000
  YS02001641              0.01      1.18      0  02:18       0.000     0.000
  YS02001644              0.28   1793.18      0  02:02       0.908     0.000
  YS02001647              0.01      5.64      0  02:18       0.000     0.000
  YS02001649              0.01      6.75      0  02:18       0.000     0.000
  YS02001767              0.01      0.16      0  02:02       0.000     0.000
  YS02001770              0.07    175.44      0  02:01       0.026     0.000
  YS02001774              0.01      0.29      0  02:02       0.000     0.000
  YS02001779              0.26    850.35      0  02:03       0.436     0.000
  YS02001882              0.01     33.28      0  02:02       0.000     0.000
  YS02001890              0.29    593.75      0  02:01       0.263     0.000
  YS02001907              0.54   2826.08      0  02:02       2.495     0.000
  YS02001910              0.01     34.34      0  02:11       0.000     0.000
  YS02001915              0.01     31.31      0  02:11       0.000     0.000
  YS02001918              0.01    102.95      0  01:52       0.001     0.000
  YS02001920              0.01      0.20      0  02:02       0.000     0.000
  YS02001923              0.01    135.70      0  01:52       0.000     0.000
  YS02001926              0.01     19.67      0  01:52       0.000     0.000
  YS02001929              0.01    208.27      0  01:52       0.000     0.000
  YS02006556              0.01      0.66      0  02:02       0.000     0.000
  YS02163601              0.01      0.76      0  02:18       0.000     0.000
  YS02164001              0.01      1.40      0  02:18       0.000     0.000
  
  
  **********************
  Storage Volume Summary
  **********************
  
  ------------------------------------------------------------------------------------------------
                         Average    Avg   Evap  Exfil     Maximum    Max    Time of Max    Maximum
                          Volume   Pcnt   Pcnt   Pcnt      Volume   Pcnt     Occurrence    Outflow
  Storage Unit           1000 m³   Full   Loss   Loss     1000 m³   Full    days hr:min        LPS
  ------------------------------------------------------------------------------------------------
  CC-storage               1.126   17.6    0.0    0.0       3.501   54.6       0  02:46    1783.53
  JK-storage               0.001    0.3    0.0    0.0       0.150   51.6       0  00:00    2300.00
  
  
  ***********************
  Outfall Loading Summary
  ***********************
  
  -----------------------------------------------------------
                         Flow       Avg       Max       Total
                         Freq      Flow      Flow      Volume
  Outfall Node           Pcnt       LPS       LPS    10^6 ltr
  -----------------------------------------------------------
  CC-1                  57.38    683.00    683.00       6.372
  CC-2                  57.38    683.00    683.00       6.372
  JK-1                  21.05    929.61   1000.00       2.820
  JK-2                  21.05    929.61   1000.00       2.820
  WSC                   99.95    260.38    518.05       5.055
  -----------------------------------------------------------
  System                51.36   3485.60   3884.05      23.439
  
  
  ********************
  Link Flow Summary
  ********************
  
  -----------------------------------------------------------------------------
                                 Maximum  Time of Max   Maximum    Max/    Max/
                                  |Flow|   Occurrence   |Veloc|    Full    Full
  Link                 Type          LPS  days hr:min     m/sec    Flow   Depth
  -----------------------------------------------------------------------------
  1                    CONDUIT    518.05     0  02:18      2.77    0.18    0.29
  WS02003060WS02003069 CONDUIT    516.55     0  02:22      1.61    0.20    0.33
  WS02003066WSF200     CONDUIT    500.00     0  02:22      2.80    0.08    0.21
  WS02003067WS02003066 CONDUIT    500.03     0  02:22      1.16    0.16    0.41
  WS02003069WS02003072 CONDUIT    516.54     0  02:23      1.34    0.25    0.37
  WS02003072WS02003073 CONDUIT    516.34     0  02:18      1.40    1.12    0.36
  WS02004401WS02004402 CONDUIT    502.30     0  02:19      1.22    0.60    0.84
  WS02004402WS02004403 CONDUIT    502.16     0  02:19      1.24    0.72    0.86
  WS02004403WS02004404 CONDUIT    501.61     0  02:19      1.24    0.36    0.90
  WS02004404WS02004405 CONDUIT    501.71     0  02:19      1.45    4.92    0.94
  WS02004405WS02004406 CONDUIT    502.01     0  02:19      1.46    0.99    0.93
  WS02004406WS02004407 CONDUIT    501.34     0  02:20      1.00    0.22    0.61
  WS02004407WS02004409 CONDUIT    500.99     0  02:20      1.59    0.18    0.46
  WS02004409WS02004410 CONDUIT    500.77     0  02:20      1.06    0.65    0.65
  WS02004410WS02004411 CONDUIT    500.56     0  02:21      1.12    0.68    0.66
  WS02004411WS02004412 CONDUIT    500.49     0  02:21      1.22    0.71    0.67
  WS02004412WS02004413 CONDUIT    500.29     0  02:21      1.22    0.34    0.76
  WS02004413WS02003067 CONDUIT    499.97     0  02:21      1.07    0.21    0.58
  WS02006109WS02006110 CONDUIT    507.55     0  02:18      1.01    0.98    0.99
  WS02006110WS02006113 CONDUIT    505.46     0  02:18      1.21    0.46    0.77
  WS02006111WS02006112 CONDUIT    506.10     0  02:18      1.95    0.24    0.67
  WS02006112WS02006115 CONDUIT    509.55     0  02:18      0.82    0.30    0.86
  WS02006113WS02006111 CONDUIT    519.57     0  02:18      2.40    0.62    0.45
  WS02006115WS02006116 CONDUIT    503.65     0  02:18      1.29    0.65    0.73
  WS02006116WS02004401 CONDUIT    502.62     0  02:19      1.21    0.69    0.81
  WS02006228WS02006109 CONDUIT    506.24     0  02:18      1.06    2.21    1.00
  WS02006229WS02006228 CONDUIT    506.08     0  02:18      1.12    1.68    1.00
  WS02006230WS02006229 CONDUIT    505.62     0  02:18      1.31   11.25    1.00
  WS02006231WS02006230 CONDUIT    533.61     0  02:18      1.40    8.09    0.98
  WS02006232WS02006231 CONDUIT    525.40     0  02:18      1.37    1.10    1.00
  WS02006234WS02006232 CONDUIT    523.20     0  02:18      1.39    1.06    1.00
  WS02006235WS02006234 CONDUIT    515.64     0  02:18      1.34    5.44    1.00
  WS02006238WS02006235 CONDUIT    439.36     0  02:35      1.45    0.98    1.00
  WS02006239WS02006238 CONDUIT    416.31     0  02:49      1.11    1.33    1.00
  WS02006240WS02006239 CONDUIT    415.75     0  02:45      1.24    1.31    1.00
  WS02006242WS02006240 CONDUIT    416.71     0  02:45      1.16    1.65    1.00
  WS02006243WS02006242 CONDUIT    417.08     0  02:45      1.38    0.89    1.00
  WS02006245WS02006243 CONDUIT    417.15     0  02:45      1.44    1.23    1.00
  WS02006247WS02006245 CONDUIT    417.19     0  02:45      1.43    3.31    1.00
  WS02006248WS02006247 CONDUIT    422.70     0  01:42      1.42    0.92    1.00
  WS02006249WS02006248 CONDUIT    421.47     0  01:43      1.36    2.31    1.00
  WS02006251WS02006249 CONDUIT    461.19     0  01:40      2.13    1.33    1.00
  WS02006252WS02006251 CONDUIT    405.95     0  01:32     28.66    1.49    1.00
  WS02006256WS02006235 CONDUIT    288.91     0  00:00      4.23    3.06    1.00
  WSF200WS02003060     CONDUIT    500.12     0  02:22      2.02    0.11    0.27
  YS02001580YS02001583 CONDUIT     75.50     0  01:46      0.54    0.29    1.00
  YS02001583YS02001586 CONDUIT    129.31     0  01:46      0.54    0.20    1.00
  YS02001586YS02001590 CONDUIT    320.42     0  02:02      1.28    0.56    1.00
  YS02001590YS02001593 CONDUIT    320.71     0  02:02      1.13    2.01    1.00
  YS02001593YS02001596 CONDUIT    317.88     0  02:08      1.77    0.50    1.00
  YS02001596YS02001600 CONDUIT    318.04     0  02:02      1.27    0.62    1.00
  YS02001600YS02001601 CONDUIT    318.35     0  02:02      1.13    0.55    1.00
  YS02001601YS02001602 CONDUIT    504.14     0  02:42      1.78    1.82    1.00
  YS02001602YS02001605 CONDUIT    504.36     0  02:42      1.78   10.67    1.00
  YS02001605YS02001607 CONDUIT    504.40     0  02:42      1.78    2.77    1.00
  YS02001607YS02001610 CONDUIT    504.80     0  02:42      0.64    0.48    1.00
  YS02001610YS02001613 CONDUIT    611.08     0  02:06      0.78    0.70    1.00
  YS02001613YS02001616 CONDUIT    610.77     0  02:07      0.78    0.52    1.00
  YS02001616YS02001619 CONDUIT    610.97     0  02:06      0.78    1.06    1.00
  YS02001619YS02001622 CONDUIT   1066.30     0  02:02      1.36    1.57    1.00
  YS02001622YS02001625 CONDUIT   1053.48     0  02:05      1.34    0.56    1.00
  YS02001625YS02001629 CONDUIT    938.55     0  02:30      1.19    0.45    1.00
  YS02001629YS02163301 CONDUIT    938.61     0  02:30      1.20    1.16    1.00
  YS02001633YS02163601 CONDUIT   1354.86     0  01:51      1.73    1.42    1.00
  YS02001641YS02001644 CONDUIT   1353.63     0  01:51      1.72    4.38    1.00
  YS02001644YS02001647 CONDUIT   1742.17     0  01:51      2.22    1.02    1.00
  YS02001647YS02001649 CONDUIT   1764.53     0  01:51      2.29    0.93    1.00
  YS02001649YS02001757 CONDUIT   1993.82     0  01:52      2.54    1.21    1.00
  YS02001652YS02001649 CONDUIT   1200.41     0  02:01      1.53    0.59    1.00
  YS02001655YS02001652 CONDUIT   1201.09     0  02:02      1.53    0.58    1.00
  YS02001658YS02001655 CONDUIT   1202.57     0  02:02      1.82    0.51    1.00
  YS02001661YS02001658 CONDUIT   1204.17     0  02:02      2.26    0.47    1.00
  YS02001664YS02001661 CONDUIT   1227.63     0  02:02      2.24    0.38    0.88
  YS02001745YS02001748 CONDUIT    764.55     0  02:02      2.11    0.29    0.95
  YS02001748YS02001751 CONDUIT    757.91     0  02:01      1.64    0.38    1.00
  YS02001751YS02001754 CONDUIT    757.72     0  02:01      1.34    0.37    1.00
  YS02001754YS02001757 CONDUIT    758.22     0  02:01      0.97    0.31    1.00
  YS02001757CaochengTiaoxuchi CONDUIT   3536.34     0  02:03      6.92    1.53    1.00
  YS02001759YS02001757 CONDUIT   1496.07     0  02:02      1.90    1.06    1.00
  YS02001762YS02001759 CONDUIT    833.41     0  02:10      1.06    0.96    1.00
  YS02001765YS02001762 CONDUIT    832.32     0  02:10      1.06    0.78    1.00
  YS02001767YS02001765 CONDUIT    832.09     0  02:10      1.06    1.05    1.00
  YS02001770YS02001767 CONDUIT    831.34     0  02:10      1.06    3.29    1.00
  YS02001774YS02001770 CONDUIT    850.33     0  02:03      1.08    0.54    1.00
  YS02001779YS02001774 CONDUIT    850.49     0  02:03      1.08    0.43    1.00
  YS02001783YS02001784 CONDUIT   1174.52     0  02:02      2.34    1.62    1.00
  YS02001784YS02001785 CONDUIT   1176.41     0  02:02      2.34    2.74    1.00
  YS02001786YS02001788 CONDUIT   1173.08     0  02:02      2.50    2.26    0.89
  YS02001788YS02001790 CONDUIT   1182.61     0  01:59      2.72    0.87    0.84
  YS02001790YS02001791 CONDUIT   1292.58     0  02:01      3.43    1.41    0.70
  YS02001791YS02001793 CONDUIT   1255.71     0  02:01      6.39    0.54    0.43
  YS02001793JiankangQianchi CONDUIT   1303.25     0  02:01     24.82    0.10    0.50
  YS02001882YS02001884 CONDUIT     50.88     0  02:02      0.17    0.06    1.00
  YS02001884YS02001887 CONDUIT     43.51     0  01:47      0.13    0.06    1.00
  YS02001887YS02001890 CONDUIT   1110.23     0  02:01      1.41    1.90    1.00
  YS02001890YS02001895 CONDUIT    529.55     0  02:02      0.67    0.25    1.00
  YS02001895YS02001898 CONDUIT    530.58     0  02:02      0.68    0.92    1.00
  YS02001898YS02001901 CONDUIT    517.43     0  02:04      0.66    0.33    1.00
  YS02001901YS02001904 CONDUIT    518.47     0  02:02      0.66    0.80    1.00
  YS02001904YS02001907 CONDUIT    520.19     0  02:02      0.66    0.18    1.00
  YS02001907YS02006553 CONDUIT    796.46     0  02:25      0.88    0.94    1.00
  YS02001910YS02001907 CONDUIT   1964.83     0  02:02      2.50    1.11    1.00
  YS02001915YS02001910 CONDUIT   1964.63     0  02:02      2.50    0.98    1.00
  YS02001918YS02001915 CONDUIT    652.60     0  02:03      0.83    0.36    1.00
  YS02001920YS02001918 CONDUIT    652.01     0  02:03      0.83    0.63    1.00
  YS02001923YS02001920 CONDUIT    649.40     0  02:03      0.83    0.29    1.00
  YS02001926YS02001923 CONDUIT    648.08     0  02:03      0.94    0.93    1.00
  YS02001929YS02001926 CONDUIT    648.13     0  02:03      1.08    0.31    1.00
  YS02006553YS02006556 CONDUIT    794.29     0  02:25      1.01    0.68    1.00
  YS02006556YS02006558 CONDUIT    795.21     0  02:25      1.01    0.63    1.00
  YS02006558YS02006561 CONDUIT   1174.70     0  02:02      4.15    2.60    1.00
  YS02006561YS02001783 CONDUIT   1172.38     0  02:02      2.33    0.61    1.00
  YS02163301YS02001633 CONDUIT    938.71     0  02:30      1.20    0.88    1.00
  YS02163601YS02164001 CONDUIT   1354.77     0  01:51      1.72    1.20    1.00
  YS02164001YS02001641 CONDUIT   1353.62     0  01:51      1.72    1.85    1.00
  CC-R1                PUMP       683.00     0  00:00              1.00
  CC-R2                PUMP       683.00     0  00:00              1.00
  CC-S1                PUMP       200.00     0  00:00              1.00
  CC-S2                PUMP       200.00     0  00:00              1.00
  JK-R1                PUMP      1000.00     0  00:00              1.00
  JK-R2                PUMP      1000.00     0  00:00              1.00
  JK-S                 PUMP       300.00     0  00:00              1.00
  
  
  ***************************
  Flow Classification Summary
  ***************************
  
  -------------------------------------------------------------------------------------
                      Adjusted    ---------- Fraction of Time in Flow Class ---------- 
                       /Actual         Up    Down  Sub   Sup   Up    Down  Norm  Inlet 
  Conduit               Length    Dry  Dry   Dry   Crit  Crit  Crit  Crit  Ltd   Ctrl  
  -------------------------------------------------------------------------------------
  1                       1.00   0.00  0.00  0.00  0.00  1.00  0.00  0.00  0.29  0.00
  WS02003060WS02003069    1.00   0.00  0.00  0.00  0.97  0.03  0.00  0.00  0.70  0.00
  WS02003066WSF200        1.00   0.05  0.00  0.00  0.00  0.95  0.00  0.00  0.91  0.00
  WS02003067WS02003066    1.00   0.05  0.00  0.00  0.95  0.00  0.00  0.00  0.00  0.00
  WS02003069WS02003072    1.00   0.00  0.00  0.00  0.99  0.01  0.00  0.00  0.72  0.00
  WS02003072WS02003073    1.00   0.00  0.00  0.00  0.00  0.00  0.00  1.00  0.00  0.00
  WS02004401WS02004402    1.00   0.02  0.00  0.00  0.98  0.00  0.00  0.00  0.00  0.00
  WS02004402WS02004403    1.00   0.02  0.00  0.00  0.98  0.00  0.00  0.00  0.00  0.00
  WS02004403WS02004404    1.00   0.00  0.03  0.00  0.97  0.00  0.00  0.00  0.00  0.00
  WS02004404WS02004405    1.00   0.00  0.00  0.00  1.00  0.00  0.00  0.00  0.00  0.00
  WS02004405WS02004406    1.00   0.00  0.00  0.00  1.00  0.00  0.00  0.00  0.00  0.00
  WS02004406WS02004407    1.00   0.00  0.03  0.00  0.97  0.00  0.00  0.00  0.00  0.00
  WS02004407WS02004409    1.00   0.03  0.00  0.00  0.96  0.01  0.00  0.00  0.96  0.00
  WS02004409WS02004410    1.00   0.03  0.00  0.00  0.96  0.00  0.00  0.00  0.00  0.00
  WS02004410WS02004411    1.00   0.04  0.00  0.00  0.96  0.00  0.00  0.00  0.00  0.00
  WS02004411WS02004412    1.00   0.04  0.00  0.00  0.96  0.00  0.00  0.00  0.00  0.00
  WS02004412WS02004413    1.00   0.04  0.00  0.00  0.96  0.00  0.00  0.00  0.00  0.00
  WS02004413WS02003067    1.00   0.04  0.01  0.00  0.00  0.00  0.95  0.00  0.00  0.00
  WS02006109WS02006110    1.00   0.00  0.01  0.00  0.98  0.00  0.01  0.00  0.00  0.00
  WS02006110WS02006113    1.00   0.01  0.01  0.00  0.98  0.00  0.00  0.00  0.00  0.00
  WS02006111WS02006112    1.00   0.02  0.00  0.00  0.98  0.00  0.00  0.00  0.98  0.00
  WS02006112WS02006115    1.00   0.02  0.00  0.00  0.97  0.00  0.00  0.00  0.00  0.00
  WS02006113WS02006111    1.00   0.02  0.00  0.00  0.00  0.98  0.00  0.00  0.11  0.00
  WS02006115WS02006116    1.00   0.02  0.00  0.00  0.97  0.00  0.00  0.01  0.00  0.00
  WS02006116WS02004401    1.00   0.02  0.00  0.00  0.98  0.00  0.00  0.00  0.00  0.00
  WS02006228WS02006109    1.00   0.00  0.00  0.00  1.00  0.00  0.00  0.00  0.00  0.00
  WS02006229WS02006228    1.00   0.00  0.00  0.00  0.99  0.00  0.00  0.01  0.00  0.00
  WS02006230WS02006229    1.00   0.00  0.00  0.00  0.99  0.00  0.00  0.01  0.02  0.00
  WS02006231WS02006230    1.00   0.00  0.00  0.00  0.29  0.00  0.71  0.00  0.00  0.00
  WS02006232WS02006231    1.00   0.00  0.00  0.00  0.99  0.00  0.00  0.00  0.00  0.00
  WS02006234WS02006232    1.00   0.00  0.00  0.00  1.00  0.00  0.00  0.00  0.01  0.00
  WS02006235WS02006234    1.00   0.00  0.00  0.00  0.94  0.00  0.06  0.00  0.00  0.00
  WS02006238WS02006235    1.00   0.00  0.00  0.00  1.00  0.00  0.00  0.00  0.00  0.00
  WS02006239WS02006238    1.00   0.00  0.00  0.00  1.00  0.00  0.00  0.00  0.06  0.00
  WS02006240WS02006239    1.00   0.00  0.00  0.00  0.92  0.00  0.00  0.07  0.31  0.00
  WS02006242WS02006240    1.00   0.00  0.00  0.00  0.93  0.00  0.07  0.00  0.00  0.00
  WS02006243WS02006242    1.00   0.00  0.00  0.00  0.98  0.00  0.00  0.02  0.59  0.00
  WS02006245WS02006243    1.00   0.00  0.00  0.00  0.71  0.00  0.00  0.28  0.00  0.00
  WS02006247WS02006245    1.00   0.00  0.00  0.00  0.97  0.00  0.00  0.03  0.00  0.00
  WS02006248WS02006247    1.00   0.00  0.00  0.00  0.98  0.00  0.00  0.02  0.38  0.00
  WS02006249WS02006248    1.00   0.00  0.00  0.00  0.45  0.00  0.55  0.00  0.00  0.00
  WS02006251WS02006249    1.00   0.00  0.00  0.00  0.99  0.01  0.00  0.00  0.59  0.00
  WS02006252WS02006251    1.00   0.00  0.63  0.00  0.12  0.00  0.25  0.00  0.00  0.00
  WS02006256WS02006235    1.00   0.00  0.00  0.00  0.95  0.04  0.00  0.00  0.01  0.00
  WSF200WS02003060        1.00   0.00  0.05  0.00  0.37  0.58  0.00  0.00  0.64  0.00
  YS02001580YS02001583    1.00   0.22  0.54  0.00  0.24  0.00  0.00  0.00  0.64  0.00
  YS02001583YS02001586    1.00   0.40  0.31  0.00  0.29  0.00  0.00  0.00  0.64  0.00
  YS02001586YS02001590    1.00   0.13  0.00  0.00  0.46  0.04  0.00  0.37  0.35  0.00
  YS02001590YS02001593    1.00   0.13  0.01  0.00  0.16  0.00  0.70  0.00  0.00  0.00
  YS02001593YS02001596    1.00   0.13  0.00  0.00  0.18  0.01  0.00  0.67  0.02  0.00
  YS02001596YS02001600    1.00   0.13  0.00  0.00  0.24  0.01  0.00  0.62  0.04  0.00
  YS02001600YS02001601    1.00   0.13  0.01  0.00  0.86  0.00  0.00  0.00  0.57  0.00
  YS02001601YS02001602    1.00   0.13  0.01  0.00  0.87  0.00  0.00  0.00  0.00  0.00
  YS02001602YS02001605    1.00   0.13  0.00  0.00  0.87  0.00  0.00  0.00  0.00  0.00
  YS02001605YS02001607    1.00   0.14  0.00  0.00  0.86  0.00  0.00  0.00  0.00  0.00
  YS02001607YS02001610    1.00   0.13  0.00  0.00  0.86  0.00  0.00  0.00  0.01  0.00
  YS02001610YS02001613    1.00   0.13  0.00  0.00  0.87  0.00  0.00  0.00  0.00  0.00
  YS02001613YS02001616    1.00   0.13  0.00  0.00  0.87  0.00  0.00  0.00  0.00  0.00
  YS02001616YS02001619    1.00   0.13  0.00  0.00  0.87  0.00  0.00  0.00  0.00  0.00
  YS02001619YS02001622    1.00   0.13  0.00  0.00  0.87  0.00  0.00  0.00  0.26  0.00
  YS02001622YS02001625    1.00   0.13  0.00  0.00  0.87  0.00  0.00  0.00  0.03  0.00
  YS02001625YS02001629    1.00   0.13  0.04  0.00  0.20  0.00  0.63  0.00  0.00  0.00
  YS02001629YS02163301    1.00   0.14  0.01  0.00  0.85  0.00  0.00  0.00  0.00  0.00
  YS02001633YS02163601    1.00   0.00  0.01  0.00  0.99  0.00  0.00  0.00  0.14  0.00
  YS02001641YS02001644    1.00   0.00  0.01  0.00  0.99  0.00  0.00  0.00  0.00  0.00
  YS02001644YS02001647    1.00   0.00  0.16  0.00  0.84  0.00  0.00  0.00  0.00  0.00
  YS02001647YS02001649    1.00   0.00  0.16  0.00  0.53  0.31  0.00  0.00  0.54  0.00
  YS02001649YS02001757    1.00   0.00  0.00  0.00  0.88  0.12  0.00  0.00  0.71  0.00
  YS02001652YS02001649    1.00   0.00  0.00  0.00  0.97  0.03  0.00  0.00  0.71  0.00
  YS02001655YS02001652    1.00   0.00  0.00  0.00  0.22  0.01  0.00  0.77  0.08  0.00
  YS02001658YS02001655    1.00   0.00  0.14  0.00  0.65  0.21  0.00  0.00  0.68  0.00
  YS02001661YS02001658    1.00   0.14  0.00  0.00  0.48  0.39  0.00  0.00  0.71  0.00
  YS02001664YS02001661    1.00   0.13  0.00  0.00  0.71  0.17  0.00  0.00  0.84  0.00
  YS02001745YS02001748    1.00   0.00  0.00  0.00  0.08  0.01  0.00  0.90  0.05  0.00
  YS02001748YS02001751    1.00   0.00  0.00  0.00  0.80  0.20  0.00  0.00  0.79  0.00
  YS02001751YS02001754    1.00   0.00  0.00  0.00  0.17  0.01  0.00  0.82  0.04  0.00
  YS02001754YS02001757    1.00   0.00  0.00  0.00  1.00  0.00  0.00  0.00  0.80  0.00
  YS02001757CaochengTiaoxuchi    1.00   0.00  0.00  0.00  0.21  0.79  0.00  0.00  0.12  0.00
  YS02001759YS02001757    1.00   0.00  0.00  0.00  1.00  0.00  0.00  0.00  0.61  0.00
  YS02001762YS02001759    1.00   0.00  0.00  0.00  1.00  0.00  0.00  0.00  0.05  0.00
  YS02001765YS02001762    1.00   0.00  0.00  0.00  1.00  0.00  0.00  0.00  0.70  0.00
  YS02001767YS02001765    1.00   0.00  0.00  0.00  1.00  0.00  0.00  0.00  0.00  0.00
  YS02001770YS02001767    1.00   0.00  0.00  0.00  1.00  0.00  0.00  0.00  0.00  0.00
  YS02001774YS02001770    1.00   0.00  0.13  0.00  0.72  0.00  0.15  0.00  0.02  0.00
  YS02001779YS02001774    1.00   0.00  0.00  0.00  1.00  0.00  0.00  0.00  0.76  0.00
  YS02001783YS02001784    1.00   0.00  0.17  0.00  0.83  0.00  0.00  0.00  0.54  0.00
  YS02001784YS02001785    1.00   0.00  0.00  0.00  1.00  0.00  0.00  0.00  0.15  0.00
  YS02001786YS02001788    1.00   0.00  0.00  0.00  0.79  0.21  0.00  0.00  0.00  0.00
  YS02001788YS02001790    1.00   0.00  0.00  0.00  0.22  0.78  0.00  0.00  0.77  0.00
  YS02001790YS02001791    1.00   0.00  0.00  0.00  0.01  0.99  0.00  0.00  0.15  0.00
  YS02001791YS02001793    1.00   0.00  0.00  0.00  0.00  1.00  0.00  0.00  0.02  0.00
  YS02001793JiankangQianchi    1.00   0.00  0.00  0.00  0.00  1.00  0.00  0.00  0.12  0.00
  YS02001882YS02001884    1.00   0.15  0.01  0.00  0.85  0.00  0.00  0.00  0.00  0.00
  YS02001884YS02001887    1.00   0.06  0.05  0.00  0.89  0.00  0.00  0.00  0.00  0.00
  YS02001887YS02001890    1.00   0.00  0.00  0.00  0.97  0.00  0.03  0.00  0.00  0.00
  YS02001890YS02001895    1.00   0.00  0.15  0.00  0.85  0.00  0.00  0.00  0.00  0.00
  YS02001895YS02001898    1.00   0.15  0.00  0.00  0.83  0.00  0.01  0.00  0.00  0.00
  YS02001898YS02001901    1.00   0.16  0.00  0.00  0.84  0.00  0.00  0.00  0.01  0.00
  YS02001901YS02001904    1.00   0.16  0.00  0.00  0.84  0.00  0.00  0.00  0.00  0.00
  YS02001904YS02001907    1.00   0.00  0.15  0.00  0.84  0.00  0.00  0.00  0.00  0.00
  YS02001907YS02006553    1.00   0.00  0.02  0.00  0.98  0.00  0.00  0.00  0.00  0.00
  YS02001910YS02001907    1.00   0.00  0.00  0.00  0.97  0.00  0.00  0.03  0.12  0.00
  YS02001915YS02001910    1.00   0.00  0.00  0.00  0.97  0.03  0.00  0.00  0.13  0.00
  YS02001918YS02001915    1.00   0.00  0.01  0.00  0.98  0.02  0.00  0.00  0.70  0.00
  YS02001920YS02001918    1.00   0.00  0.01  0.00  0.99  0.00  0.00  0.00  0.00  0.00
  YS02001923YS02001920    1.00   0.00  0.00  0.00  1.00  0.00  0.00  0.00  0.89  0.00
  YS02001926YS02001923    1.00   0.00  0.07  0.00  0.09  0.00  0.84  0.00  0.00  0.00
  YS02001929YS02001926    1.00   0.00  0.13  0.00  0.87  0.00  0.00  0.00  0.79  0.00
  YS02006553YS02006556    1.00   0.01  0.00  0.00  0.99  0.00  0.00  0.00  0.03  0.00
  YS02006556YS02006558    1.00   0.00  0.00  0.00  1.00  0.00  0.00  0.00  0.00  0.00
  YS02006558YS02006561    1.00   0.17  0.00  0.00  0.08  0.75  0.00  0.00  0.17  0.00
  YS02006561YS02001783    1.00   0.17  0.00  0.00  0.13  0.71  0.00  0.00  0.64  0.00
  YS02163301YS02001633    1.00   0.00  0.14  0.00  0.86  0.00  0.00  0.00  0.00  0.00
  YS02163601YS02164001    1.00   0.00  0.08  0.00  0.92  0.00  0.00  0.00  0.00  0.00
  YS02164001YS02001641    1.00   0.01  0.08  0.00  0.92  0.00  0.00  0.00  0.05  0.00
  
  
  *************************
  Conduit Surcharge Summary
  *************************
  
  ----------------------------------------------------------------------------
                                                           Hours        Hours 
                         --------- Hours Full --------   Above Full   Capacity
  Conduit                Both Ends  Upstream  Dnstream   Normal Flow   Limited
  ----------------------------------------------------------------------------
  WS02003072WS02003073        0.01      0.01      0.01      1.01         0.01
  WS02004404WS02004405        0.01      0.01      0.01      2.88         0.01
  WS02006109WS02006110        0.01      0.01      2.19      0.01         0.01
  WS02006110WS02006113        0.01      0.01      2.17      0.01         0.01
  WS02006111WS02006112        0.01      0.01      2.26      0.01         0.01
  WS02006112WS02006115        0.01      0.01      0.62      0.01         0.01
  WS02006228WS02006109        2.10      2.19      2.10      2.52         2.10
  WS02006229WS02006228        2.08      2.12      2.08      2.38         2.07
  WS02006230WS02006229        2.27      2.33      2.27      3.49         2.27
  WS02006231WS02006230        0.01      0.01      0.75      2.96         0.01
  WS02006232WS02006231        0.69      0.69      2.20      0.70         0.01
  WS02006234WS02006232        2.05      2.05      2.20      0.05         0.46
  WS02006235WS02006234        1.63      1.63      2.11      2.86         0.32
  WS02006238WS02006235        2.13      2.13      2.23      0.01         0.01
  WS02006239WS02006238        2.16      2.21      2.16      2.31         1.64
  WS02006240WS02006239        2.11      2.13      2.11      2.31         1.69
  WS02006242WS02006240        2.12      2.12      2.27      2.40         0.01
  WS02006243WS02006242        2.14      2.14      2.22      0.01         0.06
  WS02006245WS02006243        2.13      2.14      2.13      2.34         1.91
  WS02006247WS02006245        2.13      2.16      2.13      2.59         2.12
  WS02006248WS02006247        2.13      2.13      2.15      0.01         0.05
  WS02006249WS02006248        2.12      2.12      2.14      2.51         0.01
  WS02006251WS02006249        2.14      2.15      2.14      2.41         2.04
  WS02006252WS02006251        2.58      2.58      2.59      2.59         0.01
  WS02006256WS02006235        1.99      2.89      5.39      0.90         0.17
  YS02001580YS02001583        0.92      0.92      0.95      0.01         0.01
  YS02001583YS02001586        0.92      0.92      1.04      0.01         0.01
  YS02001586YS02001590        1.05      1.05      1.14      0.01         0.01
  YS02001590YS02001593        1.14      1.14      1.17      1.24         0.01
  YS02001593YS02001596        1.16      1.16      1.29      0.01         0.01
  YS02001596YS02001600        1.36      1.36      1.46      0.01         0.01
  YS02001600YS02001601        1.51      1.51      1.75      0.01         0.01
  YS02001601YS02001602        1.66      1.66      1.79      1.49         0.01
  YS02001602YS02001605        1.61      1.61      1.66      2.51         0.01
  YS02001605YS02001607        1.57      1.61      1.57      1.72         1.57
  YS02001607YS02001610        1.06      1.06      1.09      0.01         0.01
  YS02001610YS02001613        1.05      1.05      1.09      0.01         0.01
  YS02001613YS02001616        0.99      0.99      1.05      0.01         0.01
  YS02001616YS02001619        0.97      0.97      0.99      0.12         0.06
  YS02001619YS02001622        0.96      0.97      0.96      1.20         0.94
  YS02001622YS02001625        0.96      0.96      1.22      0.01         0.01
  YS02001625YS02001629        0.85      0.85      1.22      0.01         0.01
  YS02001629YS02163301        1.19      1.19      1.20      0.49         0.46
  YS02001633YS02163601        1.22      1.22      1.26      0.68         0.66
  YS02001641YS02001644        1.00      1.07      1.00      1.81         0.99
  YS02001644YS02001647        0.69      0.69      1.00      0.03         0.01
  YS02001647YS02001649        0.69      0.69      0.79      0.01         0.01
  YS02001649YS02001757        0.78      0.79      0.80      0.55         0.47
  YS02001652YS02001649        0.59      0.59      0.79      0.01         0.01
  YS02001655YS02001652        0.40      0.40      0.56      0.01         0.01
  YS02001658YS02001655        0.30      0.30      0.40      0.01         0.01
  YS02001661YS02001658        0.12      0.12      0.30      0.01         0.01
  YS02001664YS02001661        0.01      0.01      0.17      0.01         0.01
  YS02001745YS02001748        0.01      0.01      0.20      0.01         0.01
  YS02001748YS02001751        0.26      0.26      0.33      0.01         0.01
  YS02001751YS02001754        0.33      0.33      0.41      0.01         0.01
  YS02001754YS02001757        0.44      0.44      0.80      0.01         0.01
  YS02001757CaochengTiaoxuchi        0.32      0.80      0.85      0.70         0.16
  YS02001759YS02001757        0.70      0.70      0.80      0.12         0.14
  YS02001762YS02001759        0.66      0.66      0.70      0.01         0.04
  YS02001765YS02001762        0.60      0.60      0.66      0.01         0.01
  YS02001767YS02001765        0.57      0.57      0.60      0.02         0.06
  YS02001770YS02001767        0.57      0.58      0.57      0.83         0.54
  YS02001774YS02001770        0.55      0.55      0.65      0.01         0.01
  YS02001779YS02001774        0.43      0.43      0.65      0.01         0.01
  YS02001783YS02001784        0.75      0.78      0.75      0.98         0.75
  YS02001784YS02001785        0.62      0.75      0.62      1.33         0.62
  YS02001786YS02001788        0.01      0.62      0.01      1.13         0.01
  YS02001790YS02001791        0.01      0.01      0.01      0.73         0.01
  YS02001882YS02001884        0.71      0.71      0.72      0.01         0.01
  YS02001884YS02001887        0.75      0.75      0.77      0.01         0.01
  YS02001887YS02001890        0.79      0.79      0.80      0.21         0.01
  YS02001890YS02001895        0.70      0.70      0.83      0.01         0.01
  YS02001895YS02001898        0.69      0.69      0.70      0.01         0.01
  YS02001898YS02001901        0.70      0.70      0.75      0.01         0.01
  YS02001901YS02001904        0.74      0.74      0.75      0.01         0.01
  YS02001904YS02001907        0.74      0.74      1.10      0.01         0.01
  YS02001907YS02006553        1.34      1.34      1.43      0.01         0.01
  YS02001910YS02001907        0.82      0.82      1.07      0.08         0.09
  YS02001915YS02001910        0.71      0.71      0.82      0.01         0.01
  YS02001918YS02001915        0.60      0.60      0.71      0.01         0.01
  YS02001920YS02001918        0.60      0.60      0.62      0.01         0.01
  YS02001923YS02001920        0.55      0.55      0.62      0.01         0.01
  YS02001926YS02001923        0.23      0.23      0.28      0.01         0.01
  YS02001929YS02001926        0.11      0.11      0.28      0.01         0.01
  YS02006553YS02006556        0.94      0.94      1.09      0.01         0.01
  YS02006556YS02006558        1.03      1.03      1.12      0.01         0.01
  YS02006558YS02006561        0.64      0.93      0.64      1.26         0.64
  YS02006561YS02001783        0.56      0.56      0.78      0.01         0.01
  YS02163301YS02001633        1.20      1.20      1.25      0.01         0.02
  YS02163601YS02164001        1.10      1.10      1.26      0.38         0.01
  YS02164001YS02001641        1.07      1.10      1.07      1.02         0.81
  
  
  ***************
  Pumping Summary
  ***************
  
  ---------------------------------------------------------------------------------------------------------
                                                  Min       Avg       Max     Total     Power    % Time Off
                        Percent   Number of      Flow      Flow      Flow    Volume     Usage    Pump Curve
  Pump                 Utilized   Start-Ups       LPS       LPS       LPS  10^6 ltr     Kw-hr    Low   High
  ---------------------------------------------------------------------------------------------------------
  CC-R1                   32.74          27      0.00    683.00    683.00     6.372    106.82    0.0   67.1
  CC-R2                   32.74          27      0.00    683.00    683.00     6.372    106.82    0.0   67.1
  CC-S1                   32.74          27      0.00    200.00    200.00     1.866     13.70    0.0   29.5
  CC-S2                   32.74          27      0.00    200.00    200.00     1.866     13.70    0.0   29.5
  JK-R1                   12.24        1407      0.00    929.61   1000.00     2.854      6.59    0.0    0.0
  JK-R2                   12.24        1407      0.00    929.61   1000.00     2.854      6.59    0.0    0.0
  JK-S                    12.24        1407      0.00    296.12    300.00     0.998     22.94    0.0    0.0
  

  Analysis begun on:  Wed Feb 26 11:08:42 2025
  Analysis ended on:  Wed Feb 26 11:08:43 2025
  Total elapsed time: 00:00:01