
  EPA STORM WATER MANAGEMENT MODEL - VERSION 5.2 (Build 5.2.4)
  PYSWMM TOOLKIT API - VERSION v1.0 (2023-11-27)
  ------------------------------------------------------------

  WARNING 04: minimum elevation drop used for Conduit WS02004404WS02004405
  WARNING 03: negative offset ignored for Link YS02001904YS02001907
  
  ****************
  Analysis Options
  ****************
  Flow Units ............... LPS
  Process Models:
    Rainfall/Runoff ........ YES
    RDII ................... NO
    Snowmelt ............... NO
    Groundwater ............ NO
    Flow Routing ........... YES
    Ponding Allowed ........ NO
    Water Quality .......... NO
  Infiltration Method ...... HORTON
  Flow Routing Method ...... DYNWAVE
  Surcharge Method ......... EXTRAN
  Starting Date ............ 08/28/2015 08:00:00
  Ending Date .............. 08/28/2015 16:00:00
  Antecedent Dry Days ...... 8.0
  Report Time Step ......... 00:01:00
  Wet Time Step ............ 00:01:00
  Dry Time Step ............ 00:01:00
  Routing Time Step ........ 30.00 sec
  Variable Time Step ....... YES
  Maximum Trials ........... 8
  Number of Threads ........ 4
  Head Tolerance ........... 0.001500 m
  
  
  **************************        Volume         Depth
  Runoff Quantity Continuity     hectare-m            mm
  **************************     ---------       -------
  Total Precipitation ......         2.344        70.678
  Evaporation Loss .........         0.000         0.000
  Infiltration Loss ........         0.099         2.996
  Surface Runoff ...........         2.213        66.704
  Final Storage ............         0.033         0.996
  Continuity Error (%) .....        -0.027
  
  
  **************************        Volume        Volume
  Flow Routing Continuity        hectare-m      10^6 ltr
  **************************     ---------     ---------
  Dry Weather Inflow .......         0.025         0.248
  Wet Weather Inflow .......         2.212        22.123
  Groundwater Inflow .......         0.000         0.000
  RDII Inflow ..............         0.000         0.000
  External Inflow ..........         0.083         0.825
  External Outflow .........         1.926        19.264
  Flooding Loss ............         0.731         7.313
  Evaporation Loss .........         0.000         0.000
  Exfiltration Loss ........         0.000         0.000
  Initial Stored Volume ....         0.243         2.431
  Final Stored Volume ......         0.038         0.379
  Continuity Error (%) .....        -5.185
  
  
  *************************
  Highest Continuity Errors
  *************************
  Node JK-storage (-28.13%)
  Node WS02006256 (-16.22%)
  Node YS02001884 (5.22%)
  Node YS02001583 (-4.61%)
  
  
  ***************************
  Time-Step Critical Elements
  ***************************
  Link YS02001793JiankangQianchi (39.67%)
  Link WS02006238WS02006235 (31.46%)
  Link WS02004404WS02004405 (6.74%)
  Link WS02003066WSF200 (4.42%)
  Link WS02006235WS02006234 (3.55%)
  
  
  ********************************
  Highest Flow Instability Indexes
  ********************************
  Link WS02006256WS02006235 (57)
  Link WS02006252WS02006251 (44)
  Link WS02006235WS02006234 (40)
  Link WS02006238WS02006235 (39)
  Link WS02006113WS02006111 (33)
  
  
  *********************************
  Most Frequent Nonconverging Nodes
  *********************************
  Node CC-1 (48.39%)
  Node CC-2 (48.39%)
  Node JK-1 (48.39%)
  Node JK-2 (48.39%)
  Node WSC (48.39%)
  
  
  *************************
  Routing Time Step Summary
  *************************
  Minimum Time Step           :     0.01 sec
  Average Time Step           :     2.71 sec
  Maximum Time Step           :     6.43 sec
  % of Time in Steady State   :     0.00
  Average Iterations per Step :     5.52
  % of Steps Not Converging   :    48.39
  Time Step Frequencies       :
     30.000 - 13.228 sec      :     0.00 %
     13.228 -  5.833 sec      :     7.18 %
      5.833 -  2.572 sec      :    36.57 %
      2.572 -  1.134 sec      :    36.91 %
      1.134 -  0.500 sec      :    19.35 %
  
  
  ***************************
  Subcatchment Runoff Summary
  ***************************
  
  ------------------------------------------------------------------------------------------------------------------------------
                            Total      Total      Total      Total     Imperv       Perv      Total       Total     Peak  Runoff
                           Precip      Runon       Evap      Infil     Runoff     Runoff     Runoff      Runoff   Runoff   Coeff
  Subcatchment                 mm         mm         mm         mm         mm         mm         mm    10^6 ltr      LPS
  ------------------------------------------------------------------------------------------------------------------------------
  sub60                     70.68       0.00       0.00       1.80      61.00       6.69      67.69        0.89   677.54   0.958
  sub61                     70.68       0.00       0.00       2.61      57.54       9.41      66.95        1.23   940.04   0.947
  sub62                     70.68       0.00       0.00       1.20      63.74       4.46      68.20        1.87  1323.76   0.965
  sub63                     70.68       0.00       0.00       4.81      49.22      15.69      64.91        1.47  1057.63   0.918
  sub64                     70.68       0.00       0.00       2.43      58.87       8.17      67.05        1.61  1073.88   0.949
  sub65                     70.68       0.00       0.00       2.10      60.24       7.09      67.33        1.85  1194.30   0.953
  sub66                     70.68       0.00       0.00       5.98      49.11      14.52      63.63        2.97  1556.00   0.900
  sub67                     70.68       0.00       0.00       1.16      63.79       4.50      68.29        1.27  1027.58   0.966
  sub68                     70.68       0.00       0.00       2.16      59.60       7.74      67.34        1.85  1359.47   0.953
  sub69                     70.68       0.00       0.00       1.92      59.97       8.68      68.65        2.54  1587.38   0.971
  sub70                     70.68       0.00       0.00       6.46      46.48      17.58      64.06        1.85   870.34   0.906
  sub71                     70.68       0.00       0.00       1.23      63.70       4.43      68.13        1.78  1157.70   0.964
  sub72                     70.68       0.00       0.00       1.09      64.33       3.86      68.18        0.94   558.97   0.965
  
  
  ******************
  Node Depth Summary
  ******************
  
  ---------------------------------------------------------------------------------
                                 Average  Maximum  Maximum  Time of Max    Reported
                                   Depth    Depth      HGL   Occurrence   Max Depth
  Node                 Type       Meters   Meters   Meters  days hr:min      Meters
  ---------------------------------------------------------------------------------
  WS02003060           JUNCTION     0.21     0.37     5.30     0  02:20        0.37
  WS02003066           JUNCTION     0.18     0.29     5.84     0  02:20        0.29
  WS02003067           JUNCTION     0.47     0.69     6.01     0  02:20        0.69
  WS02003069           JUNCTION     0.24     0.41     5.00     0  02:21        0.41
  WS02003072           JUNCTION     0.30     0.48     4.85     0  02:22        0.48
  WS02003073           JUNCTION     0.17     0.29     4.35     0  02:23        0.29
  WS02004401           JUNCTION     0.56     0.82     6.82     0  02:17        0.82
  WS02004402           JUNCTION     0.59     0.85     6.81     0  02:10        0.85
  WS02004403           JUNCTION     0.61     0.86     6.79     0  02:18        0.86
  WS02004404           JUNCTION     0.69     0.94     6.79     0  02:18        0.94
  WS02004405           JUNCTION     0.68     0.93     6.78     0  02:18        0.93
  WS02004406           JUNCTION     0.69     0.94     6.77     0  02:18        0.94
  WS02004407           JUNCTION     0.16     0.28     6.60     0  02:18        0.28
  WS02004409           JUNCTION     0.36     0.64     6.41     0  02:18        0.64
  WS02004410           JUNCTION     0.38     0.66     6.38     0  02:19        0.66
  WS02004411           JUNCTION     0.40     0.67     6.35     0  02:19        0.67
  WS02004412           JUNCTION     0.42     0.68     6.32     0  02:20        0.68
  WS02004413           JUNCTION     0.58     0.84     6.31     0  02:20        0.84
  WS02006109           JUNCTION     0.63     0.94     7.56     0  02:08        0.93
  WS02006110           JUNCTION     0.64     0.90     7.48     0  02:08        0.90
  WS02006111           JUNCTION     0.17     0.28     6.98     0  02:02        0.28
  WS02006112           JUNCTION     0.72     1.03     6.91     0  02:10        1.02
  WS02006113           JUNCTION     0.26     0.44     7.33     0  02:02        0.44
  WS02006115           JUNCTION     0.45     0.72     6.86     0  02:10        0.72
  WS02006116           JUNCTION     0.53     0.80     6.84     0  02:10        0.80
  WS02006228           JUNCTION     0.63     0.97     7.62     0  02:08        0.97
  WS02006229           JUNCTION     0.60     0.97     7.66     0  02:09        0.96
  WS02006230           JUNCTION     0.60     1.05     7.79     0  02:08        1.03
  WS02006231           JUNCTION     0.41     1.07     8.19     0  02:08        0.78
  WS02006232           JUNCTION     0.54     1.62     8.66     0  02:08        1.62
  WS02006234           JUNCTION     0.47     1.96     9.12     0  02:08        1.96
  WS02006235           JUNCTION     0.51     2.00     9.16     0  01:56        2.00
  WS02006238           JUNCTION     0.54     2.15     9.29     0  01:56        2.15
  WS02006239           JUNCTION     0.51     2.03     9.24     0  01:56        2.03
  WS02006240           JUNCTION     0.47     2.10     9.39     0  01:56        2.10
  WS02006242           JUNCTION     0.55     1.55     8.82     0  01:56        1.55
  WS02006243           JUNCTION     0.48     1.48     8.90     0  02:03        1.48
  WS02006245           JUNCTION     0.48     1.56     9.04     0  02:03        1.56
  WS02006247           JUNCTION     0.51     1.47     8.97     0  02:03        1.47
  WS02006248           JUNCTION     0.48     1.10     8.69     0  01:56        1.10
  WS02006249           JUNCTION     0.50     1.09     8.69     0  01:55        1.09
  WS02006251           JUNCTION     0.50     1.15     8.82     0  01:55        1.12
  WS02006252           JUNCTION     0.32     1.50     9.74     0  00:00        0.74
  WS02006256           JUNCTION     0.94     2.35     9.28     0  00:00        2.35
  WSF200               JUNCTION     0.15     0.28     5.51     0  02:20        0.28
  YS02001580           JUNCTION     0.17     1.05     9.59     0  01:53        0.82
  YS02001583           JUNCTION     0.20     1.14     9.64     0  01:53        0.92
  YS02001586           JUNCTION     0.32     1.13     9.30     0  01:53        1.13
  YS02001590           JUNCTION     0.43     1.40     9.26     0  01:56        1.40
  YS02001593           JUNCTION     0.37     1.29     9.16     0  01:53        1.28
  YS02001596           JUNCTION     0.49     1.66     9.08     0  02:08        1.66
  YS02001600           JUNCTION     0.59     1.87     9.00     0  01:56        1.87
  YS02001601           JUNCTION     0.78     2.06     8.90     0  01:51        2.06
  YS02001602           JUNCTION     0.67     1.87     8.77     0  01:53        1.87
  YS02001605           JUNCTION     0.62     1.78     8.68     0  01:53        1.78
  YS02001607           JUNCTION     0.57     1.68     8.53     0  02:03        1.68
  YS02001610           JUNCTION     0.61     1.68     8.48     0  01:53        1.68
  YS02001613           JUNCTION     0.57     1.70     8.54     0  02:03        1.70
  YS02001616           JUNCTION     0.51     1.61     8.52     0  01:53        1.61
  YS02001619           JUNCTION     0.49     1.61     8.54     0  01:53        1.61
  YS02001622           JUNCTION     0.47     1.62     8.52     0  02:03        1.62
  YS02001625           JUNCTION     0.71     1.78     8.38     0  01:53        1.78
  YS02001629           JUNCTION     0.61     1.85     8.40     0  01:53        1.85
  YS02001633           JUNCTION     0.68     2.08     8.53     0  01:56        2.08
  YS02001641           JUNCTION     0.63     2.10     8.54     0  01:56        2.10
  YS02001644           JUNCTION     0.62     1.92     8.35     0  01:56        1.92
  YS02001647           JUNCTION     0.40     1.90     8.51     0  02:03        1.90
  YS02001649           JUNCTION     0.44     2.05     8.44     0  01:58        2.01
  YS02001652           JUNCTION     0.32     2.12     8.71     0  01:58        1.86
  YS02001655           JUNCTION     0.23     2.19     9.04     0  01:58        1.67
  YS02001658           JUNCTION     0.18     2.30     9.44     0  01:58        1.45
  YS02001661           JUNCTION     0.20     1.74     9.14     0  01:58        1.26
  YS02001664           JUNCTION     0.09     0.84     8.77     0  01:58        0.81
  YS02001745           JUNCTION     0.10     2.02     9.54     0  01:58        0.90
  YS02001748           JUNCTION     0.15     2.27     9.35     0  01:58        1.33
  YS02001751           JUNCTION     0.19     2.20     9.08     0  01:58        1.50
  YS02001754           JUNCTION     0.26     2.20     8.81     0  01:58        1.75
  YS02001757           JUNCTION     0.44     2.21     8.47     0  01:58        2.07
  YS02001759           JUNCTION     0.38     2.19     8.55     0  01:58        2.08
  YS02001762           JUNCTION     0.37     2.15     8.55     0  01:58        2.04
  YS02001765           JUNCTION     0.35     2.10     8.55     0  01:58        1.99
  YS02001767           JUNCTION     0.34     2.03     8.52     0  01:58        1.95
  YS02001770           JUNCTION     0.36     1.95     8.44     0  01:58        1.95
  YS02001774           JUNCTION     0.42     2.01     8.43     0  02:03        2.00
  YS02001779           JUNCTION     0.25     1.68     8.37     0  01:56        1.68
  YS02001783           JUNCTION     0.36     1.42     7.56     0  01:56        1.24
  YS02001784           JUNCTION     0.36     1.21     7.28     0  01:56        1.19
  YS02001786           JUNCTION     0.30     0.94     6.97     0  01:56        0.88
  YS02001788           JUNCTION     0.22     0.63     6.60     0  01:59        0.62
  YS02001790           JUNCTION     0.25     0.73     6.37     0  02:00        0.72
  YS02001791           JUNCTION     0.16     0.44     5.91     0  02:01        0.44
  YS02001793           JUNCTION     0.09     0.26     5.09     0  02:01        0.26
  YS02001882           JUNCTION     0.44     1.83     8.55     0  01:55        1.83
  YS02001884           JUNCTION     0.53     1.93     8.55     0  01:56        1.93
  YS02001887           JUNCTION     0.60     2.00     8.54     0  01:56        2.00
  YS02001890           JUNCTION     0.63     1.81     8.32     0  01:55        1.81
  YS02001895           JUNCTION     0.41     1.75     8.50     0  01:56        1.75
  YS02001898           JUNCTION     0.42     1.77     8.51     0  01:56        1.77
  YS02001901           JUNCTION     0.52     1.87     8.48     0  01:56        1.87
  YS02001904           JUNCTION     0.51     1.85     8.48     0  01:56        1.85
  YS02001907           JUNCTION     0.81     1.96     8.25     0  01:56        1.96
  YS02001910           JUNCTION     0.63     2.10     8.61     0  01:56        2.10
  YS02001915           JUNCTION     0.46     2.00     8.72     0  01:56        2.00
  YS02001918           JUNCTION     0.29     1.81     8.88     0  01:56        1.81
  YS02001920           JUNCTION     0.36     2.14     9.15     0  01:56        2.08
  YS02001923           JUNCTION     0.23     2.03     9.29     0  01:56        2.03
  YS02001926           JUNCTION     0.24     1.90     9.35     0  01:56        1.90
  YS02001929           JUNCTION     0.15     1.78     9.47     0  01:56        1.66
  YS02006553           JUNCTION     0.81     2.19     8.47     0  01:56        2.19
  YS02006556           JUNCTION     0.78     2.39     8.70     0  01:56        2.39
  YS02006558           JUNCTION     0.82     2.50     8.77     0  01:56        2.50
  YS02006561           JUNCTION     0.23     1.13     7.79     0  01:56        0.91
  YS02163301           JUNCTION     0.63     1.95     8.47     0  01:56        1.95
  YS02163601           JUNCTION     0.70     2.08     8.48     0  01:56        2.08
  YS02164001           JUNCTION     0.63     2.10     8.56     0  01:56        2.10
  CC-1                 OUTFALL      0.00     0.00     0.00     0  00:00        0.00
  CC-2                 OUTFALL      0.00     0.00     0.00     0  00:00        0.00
  JK-1                 OUTFALL      0.00     0.00     0.00     0  00:00        0.00
  JK-2                 OUTFALL      0.00     0.00     0.00     0  00:00        0.00
  WSC                  OUTFALL      0.16     0.29     0.96     0  02:23        0.29
  CC-storage           STORAGE      0.26     0.91     6.41     0  02:34        0.91
  JK-storage           STORAGE      0.02     2.99     3.79     0  00:00        0.68
  
  
  *******************
  Node Inflow Summary
  *******************
  
  -------------------------------------------------------------------------------------------------
                                  Maximum  Maximum                  Lateral       Total        Flow
                                  Lateral    Total  Time of Max      Inflow      Inflow     Balance
                                   Inflow   Inflow   Occurrence      Volume      Volume       Error
  Node                 Type           LPS      LPS  days hr:min    10^6 ltr    10^6 ltr     Percent
  -------------------------------------------------------------------------------------------------
  WS02003060           JUNCTION     16.53   515.81     0  02:20       0.471        4.25       0.058
  WS02003066           JUNCTION      0.00   499.16     0  02:20           0        3.78       0.041
  WS02003067           JUNCTION      0.00   499.09     0  02:20           0        3.79       0.113
  WS02003069           JUNCTION      0.32   516.10     0  02:21     0.00912        4.26       0.105
  WS02003072           JUNCTION      0.00   515.89     0  02:22           0        4.25       0.185
  WS02003073           JUNCTION      1.82   517.54     0  02:22      0.0519         4.3       0.146
  WS02004401           JUNCTION      0.00   500.85     0  02:09           0        3.89       0.276
  WS02004402           JUNCTION      0.00   500.41     0  02:09           0        3.88       0.278
  WS02004403           JUNCTION      0.00   500.17     0  02:14           0        3.87       0.271
  WS02004404           JUNCTION      0.16   500.06     0  02:14     0.00462        3.87       0.225
  WS02004405           JUNCTION      0.04   499.88     0  02:10     0.00109        3.86       0.331
  WS02004406           JUNCTION      0.00   499.96     0  02:11           0        3.85       0.562
  WS02004407           JUNCTION      0.00   499.76     0  02:18           0        3.82       0.034
  WS02004409           JUNCTION      0.00   499.67     0  02:18           0        3.82       0.080
  WS02004410           JUNCTION      0.00   499.60     0  02:19           0        3.82       0.129
  WS02004411           JUNCTION      0.00   499.51     0  02:19           0        3.81       0.159
  WS02004412           JUNCTION      0.00   499.48     0  02:19           0        3.81       0.208
  WS02004413           JUNCTION      0.00   499.33     0  02:19           0         3.8       0.382
  WS02006109           JUNCTION      1.23   506.15     0  02:08      0.0351        3.95       0.283
  WS02006110           JUNCTION      0.00   506.30     0  02:08           0        3.94       0.185
  WS02006111           JUNCTION      0.00   520.99     0  02:02           0        3.93       0.034
  WS02006112           JUNCTION      0.00   506.60     0  02:02           0        3.92       0.534
  WS02006113           JUNCTION      0.00   506.96     0  01:57           0        3.93       0.047
  WS02006115           JUNCTION      0.00   510.25     0  02:09           0         3.9       0.194
  WS02006116           JUNCTION      0.00   501.77     0  02:10           0         3.9       0.086
  WS02006228           JUNCTION      0.00   504.78     0  02:08           0        3.92       0.127
  WS02006229           JUNCTION      0.00   504.26     0  02:08           0        3.92       0.130
  WS02006230           JUNCTION     10.28   544.53     0  02:08       0.293        3.93       0.159
  WS02006231           JUNCTION      0.00   544.47     0  01:56           0        3.64       0.075
  WS02006232           JUNCTION      0.00   542.73     0  01:56           0        3.64       0.183
  WS02006234           JUNCTION      0.00   535.03     0  01:56           0        3.63      -0.346
  WS02006235           JUNCTION      0.00   524.01     0  01:56           0        3.82       0.303
  WS02006238           JUNCTION      0.00   417.78     0  02:37           0        3.19       0.203
  WS02006239           JUNCTION      0.00   416.72     0  02:37           0        3.04      -0.096
  WS02006240           JUNCTION      0.00   414.53     0  02:37           0        3.01      -0.066
  WS02006242           JUNCTION      0.00   414.40     0  02:37           0           3      -0.024
  WS02006243           JUNCTION      0.00   414.54     0  02:37           0           3      -0.154
  WS02006245           JUNCTION      0.00   423.02     0  01:51           0        3.01       0.517
  WS02006247           JUNCTION      0.00   431.15     0  01:49           0        3.01      -0.068
  WS02006248           JUNCTION      0.00   420.25     0  01:51           0        3.01      -0.248
  WS02006249           JUNCTION      0.00   459.02     0  00:00           0        3.05       0.899
  WS02006251           JUNCTION      0.08   406.48     0  04:07     0.00219        3.05      -0.002
  WS02006252           JUNCTION      0.00   400.00     0  00:00           0        3.04      -0.519
  WS02006256           JUNCTION      0.00   300.00     0  00:00           0       0.866     -13.959
  WSF200               JUNCTION      0.00   499.15     0  02:20           0        3.78       0.016
  YS02001580           JUNCTION      0.00   128.06     0  01:53           0     0.00421      -2.117
  YS02001583           JUNCTION      0.00   180.48     0  01:53           0      0.0153      -4.404
  YS02001586           JUNCTION    870.34   870.37     0  02:04        1.85        1.86       0.075
  YS02001590           JUNCTION      0.00   319.43     0  02:03           0        1.36      -0.037
  YS02001593           JUNCTION      0.00   318.08     0  02:03           0        1.36       0.019
  YS02001596           JUNCTION      0.00   317.86     0  02:06           0        1.36       0.008
  YS02001600           JUNCTION      0.00   317.99     0  02:03           0        1.36       0.021
  YS02001601           JUNCTION   1587.38  1904.99     0  02:03        2.54         3.9       0.023
  YS02001602           JUNCTION      0.00   521.22     0  01:52           0        2.31       0.023
  YS02001605           JUNCTION      0.00   521.47     0  01:52           0        2.21       0.029
  YS02001607           JUNCTION      0.00   522.21     0  01:52           0        2.21       0.093
  YS02001610           JUNCTION      0.00   877.15     0  02:03           0        2.56       0.096
  YS02001613           JUNCTION      0.00   541.25     0  02:04           0         2.1       0.086
  YS02001616           JUNCTION      0.00   541.23     0  02:04           0         2.1       0.022
  YS02001619           JUNCTION   1556.00  1556.00     0  02:03        2.97        4.72       0.002
  YS02001622           JUNCTION      0.00  1021.88     0  02:02           0        4.36       0.005
  YS02001625           JUNCTION      0.00  1424.10     0  02:04           0        4.58       0.197
  YS02001629           JUNCTION      0.00   980.85     0  02:23           0        3.75       0.023
  YS02001633           JUNCTION   1194.50  1379.03     0  01:55        1.86        5.29       0.068
  YS02001641           JUNCTION      0.00  1379.58     0  01:55           0        4.99       0.059
  YS02001644           JUNCTION   1073.92  1817.34     0  01:56        1.61        6.59       0.051
  YS02001647           JUNCTION      0.00  1823.46     0  01:56           0        5.98       0.007
  YS02001649           JUNCTION      0.00  2057.68     0  01:55           0        7.46       0.006
  YS02001652           JUNCTION      0.00  1096.31     0  02:01           0        1.48      -0.058
  YS02001655           JUNCTION      0.15  1096.36     0  02:01     0.00439        1.48       0.042
  YS02001658           JUNCTION      0.00  1096.04     0  02:01           0        1.47      -0.025
  YS02001661           JUNCTION      0.00  1095.04     0  02:01           0        1.47       0.006
  YS02001664           JUNCTION   1057.63  1057.63     0  02:02        1.47        1.47      -0.010
  YS02001745           JUNCTION    677.55   677.55     0  02:02       0.889        0.89       0.087
  YS02001748           JUNCTION      0.04   714.57     0  02:01     0.00128       0.892      -0.183
  YS02001751           JUNCTION      0.01   715.31     0  02:01    0.000313       0.899       0.053
  YS02001754           JUNCTION      0.26   715.53     0  02:01     0.00741       0.913      -0.064
  YS02001757           JUNCTION      0.00  3406.74     0  02:05           0        11.2       0.032
  YS02001759           JUNCTION    940.08  1433.52     0  02:01        1.23        2.81      -0.002
  YS02001762           JUNCTION      0.00   818.16     0  02:08           0        1.58       0.010
  YS02001765           JUNCTION      0.00   817.96     0  02:08           0        1.58       0.013
  YS02001767           JUNCTION      0.54   817.43     0  02:08      0.0152        1.58       0.013
  YS02001770           JUNCTION   1323.91  1323.91     0  02:02        1.87        1.91       0.001
  YS02001774           JUNCTION      0.00   828.64     0  02:02           0       0.363       0.326
  YS02001779           JUNCTION      0.01   828.74     0  02:02    0.000142       0.321      -0.165
  YS02001783           JUNCTION      0.00  1169.44     0  02:00           0        4.06       0.008
  YS02001784           JUNCTION      1.06  1170.48     0  02:00      0.0302        4.09       0.013
  YS02001786           JUNCTION      0.06  1170.50     0  02:00      0.0016        4.09       0.017
  YS02001788           JUNCTION      0.07  1171.38     0  02:00     0.00202        4.09       0.007
  YS02001790           JUNCTION      0.15  1182.89     0  01:59     0.00442        4.09      -0.000
  YS02001791           JUNCTION      0.00  1300.48     0  02:01           0        4.09      -0.000
  YS02001793           JUNCTION      0.00  1256.63     0  01:59           0        4.09       0.009
  YS02001882           JUNCTION      0.00    65.13     0  01:54           0      0.0127       5.770
  YS02001884           JUNCTION      0.00    77.08     0  01:54           0      0.0483       5.502
  YS02001887           JUNCTION   1028.03  1029.63     0  02:01        1.28        1.32       0.344
  YS02001890           JUNCTION      0.00  1029.61     0  02:01           0        1.27       0.407
  YS02001895           JUNCTION      0.00   521.23     0  02:03           0        1.09       0.150
  YS02001898           JUNCTION      0.00   517.84     0  02:08           0        1.09       0.031
  YS02001901           JUNCTION      0.00   517.24     0  02:02           0        1.09       0.304
  YS02001904           JUNCTION      0.00   517.37     0  02:02           0         1.1       0.260
  YS02001907           JUNCTION      0.00  2434.87     0  02:02           0        3.92       0.464
  YS02001910           JUNCTION      0.00  1729.06     0  02:02           0         2.8       0.260
  YS02001915           JUNCTION   1157.72  1729.00     0  02:02        1.78        2.84       0.055
  YS02001918           JUNCTION      0.00   572.05     0  02:02           0        1.09       0.013
  YS02001920           JUNCTION      2.87   571.70     0  02:02      0.0818        1.07       0.106
  YS02001923           JUNCTION      0.04   568.49     0  02:02     0.00107       0.975      -0.096
  YS02001926           JUNCTION      0.05   630.94     0  01:56     0.00149       0.955       0.009
  YS02001929           JUNCTION    558.97   558.97     0  02:03       0.937        0.94      -0.031
  YS02006553           JUNCTION      0.00   802.13     0  02:20           0         2.3       0.518
  YS02006556           JUNCTION      0.00   802.54     0  02:20           0        2.31       0.356
  YS02006558           JUNCTION   1360.35  1360.35     0  02:02        1.88        4.12       0.081
  YS02006561           JUNCTION      0.00  1183.28     0  01:56           0        4.06       0.003
  YS02163301           JUNCTION      0.00   981.34     0  02:23           0        3.73       0.046
  YS02163601           JUNCTION      0.11  1379.24     0  01:55     0.00313        4.98       0.101
  YS02164001           JUNCTION      0.00  1378.87     0  01:55           0        4.98       0.050
  CC-1                 OUTFALL       0.00   683.00     0  00:00           0        5.19       0.000
  CC-2                 OUTFALL       0.00   683.00     0  00:00           0        5.19       0.000
  JK-1                 OUTFALL       0.00  1000.00     0  00:00           0         2.3       0.000
  JK-2                 OUTFALL       0.00  1000.00     0  00:00           0         2.3       0.000
  WSC                  OUTFALL       0.00   517.39     0  02:23           0        4.29       0.000
  CC-storage           STORAGE       0.00  3406.38     0  02:05           0        13.4      -0.342
  JK-storage           STORAGE       0.00  1305.47     0  02:02           0        4.24     -21.954
  
  
  **********************
  Node Surcharge Summary
  **********************
  
  Surcharging occurs when water rises above the top of the highest conduit.
  ---------------------------------------------------------------------
                                               Max. Height   Min. Depth
                                   Hours       Above Crown    Below Rim
  Node                 Type      Surcharged         Meters       Meters
  ---------------------------------------------------------------------
  WS02006109           JUNCTION        1.60          0.117        1.703
  WS02006112           JUNCTION        0.38          0.027        1.653
  WS02006228           JUNCTION        1.59          0.144        2.056
  WS02006229           JUNCTION        1.62          0.170        2.280
  WS02006231           JUNCTION        0.49          0.359        1.171
  WS02006232           JUNCTION        1.69          0.924        0.556
  WS02006234           JUNCTION        1.26          1.240        0.000
  WS02006235           JUNCTION        1.61          1.290        0.000
  WS02006238           JUNCTION        1.65          1.430        0.000
  WS02006239           JUNCTION        1.62          1.290        0.000
  WS02006240           JUNCTION        1.62          1.390        0.000
  WS02006242           JUNCTION        1.72          0.820        0.000
  WS02006243           JUNCTION        1.64          0.770        0.000
  WS02006245           JUNCTION        1.63          0.850        0.000
  WS02006247           JUNCTION        1.65          0.760        0.000
  WS02006248           JUNCTION        1.62          0.380        0.000
  WS02006249           JUNCTION        1.64          0.390        0.000
  WS02006251           JUNCTION        0.63          0.120        1.060
  WS02006252           JUNCTION        2.10          1.100        0.000
  WS02006256           JUNCTION        6.58          2.050        0.000
  YS02001580           JUNCTION        0.65          0.450        0.000
  YS02001583           JUNCTION        0.65          0.500        0.000
  YS02001586           JUNCTION        0.74          0.510        0.000
  YS02001590           JUNCTION        0.82          0.750        0.000
  YS02001593           JUNCTION        0.82          0.675        0.165
  YS02001596           JUNCTION        0.93          0.932        0.138
  YS02001600           JUNCTION        1.09          1.190        0.000
  YS02001601           JUNCTION        1.44          1.440        0.000
  YS02001602           JUNCTION        1.35          1.270        0.000
  YS02001605           JUNCTION        1.30          1.180        0.000
  YS02001607           JUNCTION        0.74          0.680        0.000
  YS02001610           JUNCTION        0.77          0.680        0.000
  YS02001613           JUNCTION        0.74          0.700        0.000
  YS02001616           JUNCTION        0.69          0.610        0.000
  YS02001619           JUNCTION        0.68          0.610        0.000
  YS02001622           JUNCTION        0.67          0.620        0.000
  YS02001625           JUNCTION        0.87          0.780        0.000
  YS02001629           JUNCTION        0.56          0.470        0.000
  YS02001633           JUNCTION        0.87          1.060        0.000
  YS02001641           JUNCTION        0.75          1.100        0.000
  YS02001644           JUNCTION        0.68          0.920        0.000
  YS02001647           JUNCTION        0.44          0.900        0.000
  YS02001649           JUNCTION        0.47          1.050        0.000
  YS02001652           JUNCTION        0.35          1.085        0.045
  YS02001655           JUNCTION        0.27          1.187        0.013
  YS02001658           JUNCTION        0.20          1.300        0.000
  YS02001661           JUNCTION        0.09          0.670        0.720
  YS02001745           JUNCTION        0.01          1.020        0.330
  YS02001748           JUNCTION        0.14          1.190        0.000
  YS02001751           JUNCTION        0.22          1.198        0.002
  YS02001754           JUNCTION        0.27          1.150        0.000
  YS02001757           JUNCTION        0.45          1.210        0.000
  YS02001759           JUNCTION        0.39          1.191        0.019
  YS02001762           JUNCTION        0.38          1.150        0.000
  YS02001765           JUNCTION        0.36          1.100        0.000
  YS02001767           JUNCTION        0.35          1.030        0.000
  YS02001770           JUNCTION        0.34          0.920        0.000
  YS02001774           JUNCTION        0.38          1.006        0.044
  YS02001779           JUNCTION        0.29          0.680        0.000
  YS02001783           JUNCTION        0.57          0.619        0.981
  YS02001784           JUNCTION        0.54          0.408        1.082
  YS02001786           JUNCTION        0.44          0.141        1.289
  YS02001882           JUNCTION        0.51          0.830        0.000
  YS02001884           JUNCTION        0.52          0.870        0.000
  YS02001887           JUNCTION        0.56          0.950        0.000
  YS02001890           JUNCTION        0.57          0.760        0.000
  YS02001895           JUNCTION        0.51          0.750        0.000
  YS02001898           JUNCTION        0.49          0.740        0.000
  YS02001901           JUNCTION        0.54          0.870        0.000
  YS02001904           JUNCTION        0.54          0.850        0.000
  YS02001907           JUNCTION        0.77          0.950        0.000
  YS02001910           JUNCTION        0.60          1.100        0.000
  YS02001915           JUNCTION        0.51          1.000        0.000
  YS02001918           JUNCTION        0.43          0.810        0.000
  YS02001920           JUNCTION        0.44          1.140        0.000
  YS02001923           JUNCTION        0.16          0.820        0.000
  YS02001926           JUNCTION        0.18          0.900        0.000
  YS02001929           JUNCTION        0.03          0.780        0.000
  YS02006553           JUNCTION        0.79          1.190        0.000
  YS02006556           JUNCTION        0.69          1.350        0.000
  YS02006558           JUNCTION        0.67          1.400        0.000
  YS02006561           JUNCTION        0.40          0.327        0.823
  YS02163301           JUNCTION        0.85          0.953        0.077
  YS02163601           JUNCTION        0.90          1.080        0.000
  YS02164001           JUNCTION        0.77          1.100        0.000
  
  
  *********************
  Node Flooding Summary
  *********************
  
  Flooding refers to all water that overflows a node, whether it ponds or not.
  --------------------------------------------------------------------------
                                                             Total   Maximum
                                 Maximum   Time of Max       Flood    Ponded
                        Hours       Rate    Occurrence      Volume     Depth
  Node                 Flooded       LPS   days hr:min    10^6 ltr    Meters
  --------------------------------------------------------------------------
  WS02006234              0.01      5.98      0  02:09       0.000     0.000
  WS02006235              0.01      8.84      0  02:08       0.000     0.000
  WS02006238              0.01      6.26      0  02:08       0.000     0.000
  WS02006239              0.01      1.57      0  02:08       0.000     0.000
  WS02006240              0.01      1.42      0  01:56       0.000     0.000
  WS02006242              0.01      1.81      0  02:08       0.000     0.000
  WS02006243              0.01     18.37      0  02:20       0.000     0.000
  WS02006245              0.01      0.70      0  02:03       0.000     0.000
  WS02006247              0.01      0.75      0  02:03       0.000     0.000
  WS02006248              0.01     24.68      0  02:08       0.000     0.000
  WS02006249              0.52     29.44      0  02:09       0.020     0.000
  WS02006252              0.01    267.91      0  03:27       0.002     0.000
  WS02006256              0.84    293.19      0  00:00       0.339     0.000
  YS02001580              0.01    100.72      0  01:53       0.000     0.000
  YS02001583              0.01    130.14      0  01:53       0.000     0.000
  YS02001586              0.54    552.89      0  02:04       0.494     0.000
  YS02001590              0.01      0.15      0  01:56       0.000     0.000
  YS02001600              0.01      0.16      0  01:56       0.000     0.000
  YS02001601              0.66   1507.19      0  02:03       1.588     0.000
  YS02001602              0.48     62.00      0  02:03       0.100     0.000
  YS02001605              0.01      4.79      0  01:53       0.000     0.000
  YS02001607              0.01      0.08      0  02:03       0.000     0.000
  YS02001610              0.44    877.01      0  02:03       0.805     0.000
  YS02001613              0.01      0.51      0  02:03       0.000     0.000
  YS02001616              0.01     17.56      0  01:53       0.000     0.000
  YS02001619              0.01     19.45      0  01:53       0.000     0.000
  YS02001622              0.01      0.41      0  02:03       0.000     0.000
  YS02001625              0.37   1424.00      0  02:04       1.128     0.000
  YS02001629              0.16    307.34      0  02:01       0.098     0.000
  YS02001633              0.01      1.05      0  01:56       0.000     0.000
  YS02001641              0.01      0.69      0  01:56       0.000     0.000
  YS02001644              0.19   1527.87      0  02:01       0.597     0.000
  YS02001647              0.01      0.52      0  02:03       0.000     0.000
  YS02001649              0.01     70.68      0  01:58       0.000     0.000
  YS02001658              0.01    357.54      0  01:58       0.000     0.000
  YS02001748              0.01    275.87      0  01:58       0.000     0.000
  YS02001754              0.01      8.55      0  01:58       0.000     0.000
  YS02001757              0.01     31.98      0  01:58       0.000     0.000
  YS02001762              0.01     10.58      0  01:58       0.000     0.000
  YS02001765              0.01     12.22      0  01:58       0.000     0.000
  YS02001767              0.01      6.33      0  01:58       0.000     0.000
  YS02001770              0.03     37.66      0  02:01       0.003     0.000
  YS02001779              0.18    828.44      0  02:02       0.305     0.000
  YS02001882              0.01     14.34      0  02:03       0.000     0.000
  YS02001884              0.01      2.88      0  01:56       0.000     0.000
  YS02001887              0.01      3.03      0  01:56       0.000     0.000
  YS02001890              0.20    513.87      0  02:01       0.178     0.000
  YS02001895              0.01      2.08      0  01:56       0.000     0.000
  YS02001898              0.01      3.53      0  01:56       0.000     0.000
  YS02001901              0.01      2.04      0  01:56       0.000     0.000
  YS02001904              0.01      3.12      0  01:56       0.000     0.000
  YS02001907              0.38   2434.60      0  02:02       1.650     0.000
  YS02001910              0.01      0.73      0  01:56       0.000     0.000
  YS02001915              0.01      0.34      0  01:56       0.000     0.000
  YS02001918              0.01    239.93      0  01:57       0.003     0.000
  YS02001920              0.01     86.48      0  01:56       0.000     0.000
  YS02001923              0.01    323.87      0  01:56       0.002     0.000
  YS02001926              0.01    395.88      0  01:56       0.002     0.000
  YS02001929              0.01    157.00      0  01:56       0.000     0.000
  YS02006553              0.01      1.74      0  01:56       0.000     0.000
  YS02006556              0.01      2.63      0  01:56       0.000     0.000
  YS02006558              0.01      0.80      0  01:56       0.000     0.000
  YS02163601              0.01      0.98      0  01:56       0.000     0.000
  YS02164001              0.01      1.76      0  01:56       0.000     0.000
  
  
  **********************
  Storage Volume Summary
  **********************
  
  ------------------------------------------------------------------------------------------------
                         Average    Avg   Evap  Exfil     Maximum    Max    Time of Max    Maximum
                          Volume   Pcnt   Pcnt   Pcnt      Volume   Pcnt     Occurrence    Outflow
  Storage Unit           1000 m³   Full   Loss   Loss     1000 m³   Full    days hr:min        LPS
  ------------------------------------------------------------------------------------------------
  CC-storage               0.712   11.1    0.0    0.0       2.531   39.5       0  02:34    1783.53
  JK-storage               0.001    0.3    0.0    0.0       0.150   51.6       0  00:00    2300.00
  
  
  ***********************
  Outfall Loading Summary
  ***********************
  
  -----------------------------------------------------------
                         Flow       Avg       Max       Total
                         Freq      Flow      Flow      Volume
  Outfall Node           Pcnt       LPS       LPS    10^6 ltr
  -----------------------------------------------------------
  CC-1                  50.09    683.00    683.00       5.185
  CC-2                  50.09    683.00    683.00       5.185
  JK-1                  18.40    905.74   1000.00       2.301
  JK-2                  18.40    905.74   1000.00       2.301
  WSC                   99.94    220.82    517.39       4.291
  -----------------------------------------------------------
  System                47.38   3398.30   3883.39      19.264
  
  
  ********************
  Link Flow Summary
  ********************
  
  -----------------------------------------------------------------------------
                                 Maximum  Time of Max   Maximum    Max/    Max/
                                  |Flow|   Occurrence   |Veloc|    Full    Full
  Link                 Type          LPS  days hr:min     m/sec    Flow   Depth
  -----------------------------------------------------------------------------
  1                    CONDUIT    517.39     0  02:23      2.77    0.18    0.29
  WS02003060WS02003069 CONDUIT    515.78     0  02:21      1.61    0.20    0.33
  WS02003066WSF200     CONDUIT    499.15     0  02:20      2.80    0.08    0.21
  WS02003067WS02003066 CONDUIT    499.16     0  02:20      1.16    0.16    0.41
  WS02003069WS02003072 CONDUIT    515.89     0  02:22      1.34    0.25    0.37
  WS02003072WS02003073 CONDUIT    515.72     0  02:22      1.40    1.11    0.36
  WS02004401WS02004402 CONDUIT    500.41     0  02:09      1.22    0.60    0.83
  WS02004402WS02004403 CONDUIT    500.17     0  02:14      1.24    0.72    0.86
  WS02004403WS02004404 CONDUIT    499.90     0  02:14      1.24    0.36    0.90
  WS02004404WS02004405 CONDUIT    499.84     0  02:10      1.45    4.90    0.94
  WS02004405WS02004406 CONDUIT    499.96     0  02:11      1.46    0.99    0.93
  WS02004406WS02004407 CONDUIT    499.76     0  02:18      1.00    0.22    0.61
  WS02004407WS02004409 CONDUIT    499.67     0  02:18      1.59    0.18    0.46
  WS02004409WS02004410 CONDUIT    499.60     0  02:19      1.06    0.65    0.65
  WS02004410WS02004411 CONDUIT    499.51     0  02:19      1.12    0.68    0.66
  WS02004411WS02004412 CONDUIT    499.48     0  02:19      1.22    0.71    0.67
  WS02004412WS02004413 CONDUIT    499.33     0  02:19      1.22    0.33    0.76
  WS02004413WS02003067 CONDUIT    499.09     0  02:20      1.07    0.21    0.58
  WS02006109WS02006110 CONDUIT    506.30     0  02:08      1.01    0.97    0.99
  WS02006110WS02006113 CONDUIT    506.96     0  01:57      1.22    0.46    0.77
  WS02006111WS02006112 CONDUIT    506.60     0  02:02      1.95    0.24    0.67
  WS02006112WS02006115 CONDUIT    510.25     0  02:09      0.82    0.30    0.85
  WS02006113WS02006111 CONDUIT    520.99     0  02:02      2.40    0.62    0.45
  WS02006115WS02006116 CONDUIT    501.77     0  02:10      1.29    0.64    0.73
  WS02006116WS02004401 CONDUIT    500.85     0  02:09      1.21    0.69    0.81
  WS02006228WS02006109 CONDUIT    504.92     0  02:08      1.06    2.21    1.00
  WS02006229WS02006228 CONDUIT    504.78     0  02:08      1.12    1.67    1.00
  WS02006230WS02006229 CONDUIT    504.26     0  02:08      1.31   11.22    1.00
  WS02006231WS02006230 CONDUIT    534.25     0  02:08      1.40    8.10    0.98
  WS02006232WS02006231 CONDUIT    544.47     0  01:56      1.42    1.14    1.00
  WS02006234WS02006232 CONDUIT    542.73     0  01:56      1.41    1.10    1.00
  WS02006235WS02006234 CONDUIT    535.03     0  01:56      1.39    5.64    1.00
  WS02006238WS02006235 CONDUIT    423.32     0  02:27      1.45    0.94    1.00
  WS02006239WS02006238 CONDUIT    417.78     0  02:37      1.11    1.34    1.00
  WS02006240WS02006239 CONDUIT    416.72     0  02:37      1.24    1.31    1.00
  WS02006242WS02006240 CONDUIT    414.53     0  02:37      1.16    1.65    1.00
  WS02006243WS02006242 CONDUIT    414.40     0  02:37      1.38    0.89    1.00
  WS02006245WS02006243 CONDUIT    414.54     0  02:37      1.44    1.23    1.00
  WS02006247WS02006245 CONDUIT    423.02     0  01:51      1.43    3.35    1.00
  WS02006248WS02006247 CONDUIT    431.15     0  01:49      1.42    0.94    1.00
  WS02006249WS02006248 CONDUIT    420.25     0  01:51      1.36    2.30    1.00
  WS02006251WS02006249 CONDUIT    459.02     0  00:00      2.13    1.32    1.00
  WS02006252WS02006251 CONDUIT    406.41     0  04:07     27.71    1.49    1.00
  WS02006256WS02006235 CONDUIT    288.91     0  00:00      4.23    3.06    1.00
  WSF200WS02003060     CONDUIT    499.28     0  02:20      2.02    0.11    0.27
  YS02001580YS02001583 CONDUIT    128.06     0  01:53      0.70    0.50    1.00
  YS02001583YS02001586 CONDUIT    165.20     0  01:53      0.71    0.25    1.00
  YS02001586YS02001590 CONDUIT    319.43     0  02:03      1.27    0.56    1.00
  YS02001590YS02001593 CONDUIT    318.08     0  02:03      1.12    2.00    1.00
  YS02001593YS02001596 CONDUIT    317.86     0  02:06      1.77    0.50    1.00
  YS02001596YS02001600 CONDUIT    317.99     0  02:03      1.25    0.62    1.00
  YS02001600YS02001601 CONDUIT    318.15     0  02:03      1.13    0.55    1.00
  YS02001601YS02001602 CONDUIT    521.22     0  01:52      1.84    1.88    1.00
  YS02001602YS02001605 CONDUIT    521.47     0  01:52      1.84   11.04    1.00
  YS02001605YS02001607 CONDUIT    522.21     0  01:52      1.85    2.86    1.00
  YS02001607YS02001610 CONDUIT    528.89     0  01:52      0.67    0.50    1.00
  YS02001610YS02001613 CONDUIT    541.00     0  02:03      0.69    0.62    1.00
  YS02001613YS02001616 CONDUIT    541.25     0  02:04      0.69    0.46    1.00
  YS02001616YS02001619 CONDUIT    541.23     0  02:04      0.69    0.94    1.00
  YS02001619YS02001622 CONDUIT   1021.88     0  02:02      1.30    1.51    1.00
  YS02001622YS02001625 CONDUIT   1021.49     0  02:02      1.30    0.55    1.00
  YS02001625YS02001629 CONDUIT    980.85     0  02:23      1.25    0.47    1.00
  YS02001629YS02163301 CONDUIT    981.34     0  02:23      1.25    1.21    1.00
  YS02001633YS02163601 CONDUIT   1379.13     0  01:55      1.76    1.45    1.00
  YS02001641YS02001644 CONDUIT   1379.77     0  01:55      1.76    4.46    1.00
  YS02001644YS02001647 CONDUIT   1823.46     0  01:56      2.32    1.07    1.00
  YS02001647YS02001649 CONDUIT   1837.29     0  01:56      2.34    0.97    1.00
  YS02001649YS02001757 CONDUIT   2057.21     0  01:56      2.62    1.25    1.00
  YS02001652YS02001649 CONDUIT   1096.39     0  02:01      1.40    0.54    1.00
  YS02001655YS02001652 CONDUIT   1096.31     0  02:01      1.40    0.53    1.00
  YS02001658YS02001655 CONDUIT   1096.20     0  02:01      1.90    0.47    1.00
  YS02001661YS02001658 CONDUIT   1096.04     0  02:01      2.35    0.43    1.00
  YS02001664YS02001661 CONDUIT   1095.04     0  02:01      2.37    0.34    0.92
  YS02001745YS02001748 CONDUIT    714.52     0  02:01      2.23    0.28    1.00
  YS02001748YS02001751 CONDUIT    715.30     0  02:01      1.72    0.36    1.00
  YS02001751YS02001754 CONDUIT    715.27     0  02:01      1.39    0.34    1.00
  YS02001754YS02001757 CONDUIT    715.60     0  02:01      0.91    0.29    1.00
  YS02001757CaochengTiaoxuchi CONDUIT   3406.38     0  02:05      7.26    1.47    0.90
  YS02001759YS02001757 CONDUIT   1433.24     0  02:01      1.82    1.02    1.00
  YS02001762YS02001759 CONDUIT    819.15     0  02:08      1.04    0.94    1.00
  YS02001765YS02001762 CONDUIT    818.16     0  02:08      1.04    0.77    1.00
  YS02001767YS02001765 CONDUIT    817.96     0  02:08      1.04    1.03    1.00
  YS02001770YS02001767 CONDUIT    816.90     0  02:08      1.04    3.24    1.00
  YS02001774YS02001770 CONDUIT    828.64     0  02:02      1.06    0.53    1.00
  YS02001779YS02001774 CONDUIT    828.73     0  02:02      1.06    0.42    1.00
  YS02001783YS02001784 CONDUIT   1169.42     0  02:00      2.33    1.61    1.00
  YS02001784YS02001785 CONDUIT   1170.44     0  02:00      2.33    2.72    1.00
  YS02001786YS02001788 CONDUIT   1171.31     0  02:00      2.49    2.26    0.89
  YS02001788YS02001790 CONDUIT   1182.74     0  01:59      2.72    0.87    0.85
  YS02001790YS02001791 CONDUIT   1300.48     0  02:01      3.44    1.41    0.71
  YS02001791YS02001793 CONDUIT   1256.63     0  01:59      6.37    0.54    0.43
  YS02001793JiankangQianchi CONDUIT   1305.47     0  02:02     24.37    0.10    0.50
  YS02001882YS02001884 CONDUIT     65.13     0  01:54      0.13    0.07    1.00
  YS02001884YS02001887 CONDUIT     77.08     0  01:54      0.10    0.10    1.00
  YS02001887YS02001890 CONDUIT   1029.61     0  02:01      1.31    1.76    1.00
  YS02001890YS02001895 CONDUIT    521.23     0  02:03      0.66    0.24    1.00
  YS02001895YS02001898 CONDUIT    517.84     0  02:08      0.66    0.90    1.00
  YS02001898YS02001901 CONDUIT    517.24     0  02:02      0.66    0.33    1.00
  YS02001901YS02001904 CONDUIT    517.37     0  02:02      0.66    0.80    1.00
  YS02001904YS02001907 CONDUIT    519.85     0  02:03      0.66    0.18    1.00
  YS02001907YS02006553 CONDUIT    802.13     0  02:20      0.89    0.94    1.00
  YS02001910YS02001907 CONDUIT   1729.54     0  02:02      2.20    0.97    1.00
  YS02001915YS02001910 CONDUIT   1729.06     0  02:02      2.20    0.86    1.00
  YS02001918YS02001915 CONDUIT    572.59     0  02:02      0.73    0.32    1.00
  YS02001920YS02001918 CONDUIT    572.05     0  02:02      0.73    0.55    1.00
  YS02001923YS02001920 CONDUIT    568.83     0  02:02      0.72    0.26    1.00
  YS02001926YS02001923 CONDUIT    568.45     0  02:02      0.96    0.81    1.00
  YS02001929YS02001926 CONDUIT    567.91     0  02:02      1.14    0.27    1.00
  YS02006553YS02006556 CONDUIT    802.54     0  02:20      1.02    0.69    1.00
  YS02006556YS02006558 CONDUIT    803.53     0  02:20      1.02    0.63    1.00
  YS02006558YS02006561 CONDUIT   1183.28     0  01:56      4.18    2.62    1.00
  YS02006561YS02001783 CONDUIT   1169.44     0  02:00      2.33    0.61    1.00
  YS02163301YS02001633 CONDUIT    981.91     0  02:23      1.25    0.92    1.00
  YS02163601YS02164001 CONDUIT   1378.87     0  01:55      1.76    1.22    1.00
  YS02164001YS02001641 CONDUIT   1379.58     0  01:55      1.76    1.88    1.00
  CC-R1                PUMP       683.00     0  00:00              1.00
  CC-R2                PUMP       683.00     0  00:00              1.00
  CC-S1                PUMP       200.00     0  00:00              1.00
  CC-S2                PUMP       200.00     0  00:00              1.00
  JK-R1                PUMP      1000.00     0  00:00              1.00
  JK-R2                PUMP      1000.00     0  00:00              1.00
  JK-S                 PUMP       300.00     0  00:00              1.00
  
  
  ***************************
  Flow Classification Summary
  ***************************
  
  -------------------------------------------------------------------------------------
                      Adjusted    ---------- Fraction of Time in Flow Class ---------- 
                       /Actual         Up    Down  Sub   Sup   Up    Down  Norm  Inlet 
  Conduit               Length    Dry  Dry   Dry   Crit  Crit  Crit  Crit  Ltd   Ctrl  
  -------------------------------------------------------------------------------------
  1                       1.00   0.00  0.00  0.00  0.00  1.00  0.00  0.00  0.30  0.00
  WS02003060WS02003069    1.00   0.00  0.00  0.00  0.97  0.03  0.00  0.00  0.77  0.00
  WS02003066WSF200        1.00   0.05  0.00  0.00  0.00  0.95  0.00  0.00  0.91  0.00
  WS02003067WS02003066    1.00   0.05  0.00  0.00  0.95  0.00  0.00  0.00  0.00  0.00
  WS02003069WS02003072    1.00   0.00  0.00  0.00  0.99  0.01  0.00  0.00  0.78  0.00
  WS02003072WS02003073    1.00   0.00  0.00  0.00  0.00  0.00  0.00  1.00  0.00  0.00
  WS02004401WS02004402    1.00   0.02  0.00  0.00  0.98  0.00  0.00  0.00  0.00  0.00
  WS02004402WS02004403    1.00   0.02  0.00  0.00  0.98  0.00  0.00  0.00  0.00  0.00
  WS02004403WS02004404    1.00   0.00  0.03  0.00  0.97  0.00  0.00  0.00  0.00  0.00
  WS02004404WS02004405    1.00   0.00  0.00  0.00  1.00  0.00  0.00  0.00  0.00  0.00
  WS02004405WS02004406    1.00   0.00  0.00  0.00  1.00  0.00  0.00  0.00  0.00  0.00
  WS02004406WS02004407    1.00   0.00  0.03  0.00  0.97  0.00  0.00  0.00  0.00  0.00
  WS02004407WS02004409    1.00   0.03  0.00  0.00  0.96  0.01  0.00  0.00  0.96  0.00
  WS02004409WS02004410    1.00   0.03  0.00  0.00  0.96  0.00  0.00  0.00  0.00  0.00
  WS02004410WS02004411    1.00   0.04  0.00  0.00  0.96  0.00  0.00  0.00  0.00  0.00
  WS02004411WS02004412    1.00   0.04  0.00  0.00  0.96  0.00  0.00  0.00  0.00  0.00
  WS02004412WS02004413    1.00   0.04  0.00  0.00  0.96  0.00  0.00  0.00  0.00  0.00
  WS02004413WS02003067    1.00   0.04  0.01  0.00  0.00  0.00  0.95  0.00  0.00  0.00
  WS02006109WS02006110    1.00   0.00  0.01  0.00  0.98  0.00  0.01  0.00  0.00  0.00
  WS02006110WS02006113    1.00   0.01  0.01  0.00  0.98  0.00  0.00  0.00  0.00  0.00
  WS02006111WS02006112    1.00   0.02  0.00  0.00  0.98  0.00  0.00  0.00  0.98  0.00
  WS02006112WS02006115    1.00   0.02  0.00  0.00  0.97  0.00  0.00  0.00  0.00  0.00
  WS02006113WS02006111    1.00   0.02  0.00  0.00  0.00  0.98  0.00  0.00  0.10  0.00
  WS02006115WS02006116    1.00   0.02  0.00  0.00  0.97  0.00  0.00  0.01  0.00  0.00
  WS02006116WS02004401    1.00   0.02  0.00  0.00  0.98  0.00  0.00  0.00  0.00  0.00
  WS02006228WS02006109    1.00   0.00  0.00  0.00  1.00  0.00  0.00  0.00  0.00  0.00
  WS02006229WS02006228    1.00   0.00  0.00  0.00  0.99  0.00  0.00  0.01  0.00  0.00
  WS02006230WS02006229    1.00   0.00  0.00  0.00  0.99  0.00  0.00  0.01  0.02  0.00
  WS02006231WS02006230    1.00   0.00  0.00  0.00  0.22  0.00  0.77  0.00  0.00  0.00
  WS02006232WS02006231    1.00   0.00  0.00  0.00  0.99  0.00  0.00  0.00  0.00  0.00
  WS02006234WS02006232    1.00   0.00  0.00  0.00  1.00  0.00  0.00  0.00  0.02  0.00
  WS02006235WS02006234    1.00   0.00  0.00  0.00  0.92  0.00  0.08  0.00  0.00  0.00
  WS02006238WS02006235    1.00   0.00  0.00  0.00  1.00  0.00  0.00  0.00  0.00  0.00
  WS02006239WS02006238    1.00   0.00  0.00  0.00  1.00  0.00  0.00  0.00  0.07  0.00
  WS02006240WS02006239    1.00   0.00  0.00  0.00  0.91  0.00  0.00  0.09  0.31  0.00
  WS02006242WS02006240    1.00   0.00  0.00  0.00  0.92  0.00  0.08  0.00  0.00  0.00
  WS02006243WS02006242    1.00   0.00  0.00  0.00  0.98  0.00  0.00  0.02  0.64  0.00
  WS02006245WS02006243    1.00   0.00  0.00  0.00  0.69  0.00  0.00  0.31  0.00  0.00
  WS02006247WS02006245    1.00   0.00  0.00  0.00  0.96  0.00  0.00  0.04  0.00  0.00
  WS02006248WS02006247    1.00   0.00  0.00  0.00  0.98  0.00  0.00  0.02  0.42  0.00
  WS02006249WS02006248    1.00   0.00  0.00  0.00  0.41  0.00  0.59  0.00  0.00  0.00
  WS02006251WS02006249    1.00   0.00  0.00  0.00  0.99  0.01  0.00  0.00  0.63  0.00
  WS02006252WS02006251    1.00   0.00  0.59  0.00  0.08  0.00  0.33  0.00  0.00  0.00
  WS02006256WS02006235    1.00   0.00  0.00  0.00  0.95  0.05  0.00  0.00  0.01  0.00
  WSF200WS02003060        1.00   0.00  0.05  0.00  0.40  0.55  0.00  0.00  0.71  0.00
  YS02001580YS02001583    1.00   0.23  0.57  0.00  0.20  0.00  0.00  0.00  0.66  0.00
  YS02001583YS02001586    1.00   0.41  0.33  0.00  0.25  0.00  0.00  0.00  0.66  0.00
  YS02001586YS02001590    1.00   0.13  0.00  0.00  0.43  0.04  0.00  0.40  0.37  0.00
  YS02001590YS02001593    1.00   0.13  0.01  0.00  0.12  0.00  0.75  0.00  0.00  0.00
  YS02001593YS02001596    1.00   0.14  0.00  0.00  0.14  0.01  0.00  0.72  0.02  0.00
  YS02001596YS02001600    1.00   0.14  0.00  0.00  0.20  0.01  0.00  0.65  0.04  0.00
  YS02001600YS02001601    1.00   0.13  0.01  0.00  0.86  0.00  0.00  0.00  0.60  0.00
  YS02001601YS02001602    1.00   0.13  0.01  0.00  0.86  0.00  0.00  0.00  0.00  0.00
  YS02001602YS02001605    1.00   0.14  0.00  0.00  0.86  0.00  0.00  0.00  0.00  0.00
  YS02001605YS02001607    1.00   0.14  0.00  0.00  0.86  0.00  0.00  0.00  0.00  0.00
  YS02001607YS02001610    1.00   0.13  0.01  0.00  0.86  0.00  0.00  0.00  0.01  0.00
  YS02001610YS02001613    1.00   0.13  0.00  0.00  0.87  0.00  0.00  0.00  0.00  0.00
  YS02001613YS02001616    1.00   0.13  0.00  0.00  0.87  0.00  0.00  0.00  0.00  0.00
  YS02001616YS02001619    1.00   0.13  0.00  0.00  0.87  0.00  0.00  0.00  0.00  0.00
  YS02001619YS02001622    1.00   0.13  0.00  0.00  0.87  0.00  0.00  0.00  0.28  0.00
  YS02001622YS02001625    1.00   0.13  0.00  0.00  0.87  0.00  0.00  0.00  0.04  0.00
  YS02001625YS02001629    1.00   0.13  0.05  0.00  0.16  0.00  0.66  0.00  0.00  0.00
  YS02001629YS02163301    1.00   0.16  0.01  0.00  0.83  0.00  0.00  0.00  0.00  0.00
  YS02001633YS02163601    1.00   0.00  0.01  0.00  0.99  0.00  0.00  0.00  0.15  0.00
  YS02001641YS02001644    1.00   0.00  0.01  0.00  0.99  0.00  0.00  0.00  0.00  0.00
  YS02001644YS02001647    1.00   0.00  0.17  0.00  0.83  0.00  0.00  0.00  0.00  0.00
  YS02001647YS02001649    1.00   0.00  0.17  0.00  0.50  0.33  0.00  0.00  0.56  0.00
  YS02001649YS02001757    1.00   0.00  0.00  0.00  0.84  0.16  0.00  0.00  0.76  0.00
  YS02001652YS02001649    1.00   0.00  0.00  0.00  0.96  0.04  0.00  0.00  0.74  0.00
  YS02001655YS02001652    1.00   0.00  0.00  0.00  0.18  0.01  0.00  0.80  0.09  0.00
  YS02001658YS02001655    1.00   0.00  0.14  0.00  0.60  0.25  0.00  0.00  0.73  0.00
  YS02001661YS02001658    1.00   0.14  0.00  0.00  0.44  0.41  0.00  0.00  0.71  0.00
  YS02001664YS02001661    1.00   0.13  0.00  0.00  0.74  0.13  0.00  0.00  0.85  0.00
  YS02001745YS02001748    1.00   0.00  0.00  0.00  0.04  0.01  0.00  0.95  0.02  0.00
  YS02001748YS02001751    1.00   0.00  0.00  0.00  0.76  0.24  0.00  0.00  0.83  0.00
  YS02001751YS02001754    1.00   0.00  0.00  0.00  0.12  0.01  0.00  0.87  0.05  0.00
  YS02001754YS02001757    1.00   0.00  0.00  0.00  1.00  0.00  0.00  0.00  0.85  0.00
  YS02001757CaochengTiaoxuchi    1.00   0.00  0.00  0.00  0.11  0.89  0.00  0.00  0.11  0.00
  YS02001759YS02001757    1.00   0.00  0.00  0.00  1.00  0.00  0.00  0.00  0.65  0.00
  YS02001762YS02001759    1.00   0.00  0.00  0.00  1.00  0.00  0.00  0.00  0.06  0.00
  YS02001765YS02001762    1.00   0.00  0.00  0.00  1.00  0.00  0.00  0.00  0.72  0.00
  YS02001767YS02001765    1.00   0.00  0.00  0.00  1.00  0.00  0.00  0.00  0.00  0.00
  YS02001770YS02001767    1.00   0.00  0.00  0.00  1.00  0.00  0.00  0.00  0.00  0.00
  YS02001774YS02001770    1.00   0.00  0.13  0.00  0.71  0.00  0.16  0.00  0.03  0.00
  YS02001779YS02001774    1.00   0.00  0.00  0.00  1.00  0.00  0.00  0.00  0.79  0.00
  YS02001783YS02001784    1.00   0.00  0.18  0.00  0.82  0.00  0.00  0.00  0.55  0.00
  YS02001784YS02001785    1.00   0.00  0.00  0.00  1.00  0.00  0.00  0.00  0.17  0.00
  YS02001786YS02001788    1.00   0.00  0.00  0.00  0.80  0.20  0.00  0.00  0.00  0.00
  YS02001788YS02001790    1.00   0.00  0.00  0.00  0.22  0.78  0.00  0.00  0.80  0.00
  YS02001790YS02001791    1.00   0.00  0.00  0.00  0.01  0.99  0.00  0.00  0.15  0.00
  YS02001791YS02001793    1.00   0.00  0.00  0.00  0.00  1.00  0.00  0.00  0.01  0.00
  YS02001793JiankangQianchi    1.00   0.00  0.00  0.00  0.00  1.00  0.00  0.00  0.13  0.00
  YS02001882YS02001884    1.00   0.15  0.01  0.00  0.84  0.00  0.00  0.00  0.00  0.00
  YS02001884YS02001887    1.00   0.06  0.05  0.00  0.89  0.00  0.00  0.00  0.00  0.00
  YS02001887YS02001890    1.00   0.00  0.00  0.00  0.97  0.00  0.03  0.00  0.00  0.00
  YS02001890YS02001895    1.00   0.00  0.16  0.00  0.83  0.00  0.00  0.00  0.00  0.00
  YS02001895YS02001898    1.00   0.17  0.00  0.00  0.81  0.00  0.02  0.00  0.00  0.00
  YS02001898YS02001901    1.00   0.17  0.00  0.00  0.83  0.00  0.00  0.00  0.01  0.00
  YS02001901YS02001904    1.00   0.17  0.00  0.00  0.83  0.00  0.00  0.00  0.00  0.00
  YS02001904YS02001907    1.00   0.00  0.17  0.00  0.83  0.00  0.00  0.00  0.00  0.00
  YS02001907YS02006553    1.00   0.00  0.02  0.00  0.98  0.00  0.00  0.00  0.00  0.00
  YS02001910YS02001907    1.00   0.00  0.00  0.00  0.97  0.00  0.00  0.03  0.12  0.00
  YS02001915YS02001910    1.00   0.00  0.00  0.00  0.96  0.04  0.00  0.00  0.16  0.00
  YS02001918YS02001915    1.00   0.00  0.01  0.00  0.98  0.02  0.00  0.00  0.75  0.00
  YS02001920YS02001918    1.00   0.00  0.01  0.00  0.99  0.00  0.00  0.00  0.00  0.00
  YS02001923YS02001920    1.00   0.00  0.00  0.00  1.00  0.00  0.00  0.00  0.92  0.00
  YS02001926YS02001923    1.00   0.00  0.07  0.00  0.06  0.00  0.86  0.00  0.00  0.00
  YS02001929YS02001926    1.00   0.00  0.13  0.00  0.87  0.00  0.00  0.00  0.81  0.00
  YS02006553YS02006556    1.00   0.01  0.00  0.00  0.99  0.00  0.00  0.00  0.03  0.00
  YS02006556YS02006558    1.00   0.00  0.00  0.00  1.00  0.00  0.00  0.00  0.00  0.00
  YS02006558YS02006561    1.00   0.18  0.00  0.00  0.06  0.76  0.00  0.00  0.18  0.00
  YS02006561YS02001783    1.00   0.18  0.00  0.00  0.09  0.73  0.00  0.00  0.68  0.00
  YS02163301YS02001633    1.00   0.00  0.15  0.00  0.85  0.00  0.00  0.00  0.00  0.00
  YS02163601YS02164001    1.00   0.00  0.08  0.00  0.92  0.00  0.00  0.00  0.00  0.00
  YS02164001YS02001641    1.00   0.01  0.08  0.00  0.92  0.00  0.00  0.00  0.06  0.00
  
  
  *************************
  Conduit Surcharge Summary
  *************************
  
  ----------------------------------------------------------------------------
                                                           Hours        Hours 
                         --------- Hours Full --------   Above Full   Capacity
  Conduit                Both Ends  Upstream  Dnstream   Normal Flow   Limited
  ----------------------------------------------------------------------------
  WS02003072WS02003073        0.01      0.01      0.01      0.68         0.01
  WS02004404WS02004405        0.01      0.01      0.01      2.41         0.01
  WS02006109WS02006110        0.01      0.01      1.68      0.01         0.01
  WS02006110WS02006113        0.01      0.01      1.65      0.01         0.01
  WS02006111WS02006112        0.01      0.01      1.74      0.01         0.01
  WS02006112WS02006115        0.01      0.01      0.38      0.01         0.01
  WS02006228WS02006109        1.60      1.68      1.60      1.99         1.60
  WS02006229WS02006228        1.59      1.62      1.59      1.85         1.59
  WS02006230WS02006229        1.75      1.80      1.75      3.42         1.75
  WS02006231WS02006230        0.01      0.01      0.53      2.56         0.01
  WS02006232WS02006231        0.49      0.49      1.69      0.49         0.01
  WS02006234WS02006232        1.56      1.56      1.69      0.03         0.33
  WS02006235WS02006234        1.24      1.25      1.61      2.37         0.26
  WS02006238WS02006235        1.63      1.63      1.71      0.01         0.01
  WS02006239WS02006238        1.65      1.69      1.65      1.81         1.23
  WS02006240WS02006239        1.62      1.64      1.62      1.81         1.29
  WS02006242WS02006240        1.62      1.62      1.76      1.88         0.01
  WS02006243WS02006242        1.65      1.65      1.72      0.01         0.05
  WS02006245WS02006243        1.63      1.64      1.64      1.83         1.46
  WS02006247WS02006245        1.63      1.66      1.63      2.08         1.63
  WS02006248WS02006247        1.63      1.63      1.65      0.01         0.04
  WS02006249WS02006248        1.62      1.62      1.64      1.99         0.01
  WS02006251WS02006249        1.64      1.64      1.64      1.90         1.57
  WS02006252WS02006251        2.10      2.10      2.10      2.11         0.01
  WS02006256WS02006235        1.66      2.40      5.33      0.83         0.16
  YS02001580YS02001583        0.65      0.65      0.67      0.01         0.01
  YS02001583YS02001586        0.65      0.65      0.74      0.01         0.01
  YS02001586YS02001590        0.75      0.75      0.82      0.01         0.01
  YS02001590YS02001593        0.82      0.82      0.84      0.90         0.01
  YS02001593YS02001596        0.83      0.83      0.93      0.01         0.01
  YS02001596YS02001600        0.97      0.97      1.09      0.01         0.01
  YS02001600YS02001601        1.16      1.16      1.44      0.01         0.01
  YS02001601YS02001602        1.35      1.35      1.48      1.11         0.01
  YS02001602YS02001605        1.30      1.30      1.35      2.26         0.01
  YS02001605YS02001607        1.24      1.30      1.24      1.41         1.24
  YS02001607YS02001610        0.74      0.74      0.77      0.01         0.01
  YS02001610YS02001613        0.74      0.74      0.77      0.01         0.01
  YS02001613YS02001616        0.69      0.69      0.74      0.01         0.01
  YS02001616YS02001619        0.68      0.68      0.69      0.01         0.07
  YS02001619YS02001622        0.67      0.68      0.67      0.86         0.65
  YS02001622YS02001625        0.67      0.67      0.87      0.01         0.01
  YS02001625YS02001629        0.56      0.56      0.87      0.01         0.01
  YS02001629YS02163301        0.84      0.84      0.85      0.38         0.36
  YS02001633YS02163601        0.87      0.87      0.90      0.50         0.50
  YS02001641YS02001644        0.68      0.75      0.68      1.51         0.67
  YS02001644YS02001647        0.43      0.43      0.68      0.04         0.01
  YS02001647YS02001649        0.44      0.44      0.47      0.01         0.01
  YS02001649YS02001757        0.45      0.47      0.45      0.40         0.28
  YS02001652YS02001649        0.37      0.37      0.47      0.01         0.01
  YS02001655YS02001652        0.27      0.27      0.35      0.01         0.01
  YS02001658YS02001655        0.20      0.20      0.27      0.01         0.01
  YS02001661YS02001658        0.09      0.09      0.20      0.01         0.01
  YS02001664YS02001661        0.01      0.01      0.12      0.01         0.01
  YS02001745YS02001748        0.01      0.01      0.14      0.01         0.01
  YS02001748YS02001751        0.18      0.18      0.22      0.01         0.01
  YS02001751YS02001754        0.22      0.22      0.27      0.01         0.01
  YS02001754YS02001757        0.29      0.29      0.45      0.01         0.01
  YS02001757CaochengTiaoxuchi        0.01      0.45      0.01      0.55         0.01
  YS02001759YS02001757        0.39      0.39      0.45      0.04         0.06
  YS02001762YS02001759        0.38      0.38      0.39      0.01         0.03
  YS02001765YS02001762        0.36      0.36      0.38      0.01         0.01
  YS02001767YS02001765        0.35      0.35      0.36      0.01         0.04
  YS02001770YS02001767        0.35      0.35      0.35      0.62         0.34
  YS02001774YS02001770        0.34      0.34      0.38      0.01         0.01
  YS02001779YS02001774        0.29      0.29      0.38      0.01         0.01
  YS02001783YS02001784        0.54      0.57      0.54      0.71         0.54
  YS02001784YS02001785        0.44      0.54      0.44      0.94         0.44
  YS02001786YS02001788        0.01      0.44      0.01      0.81         0.01
  YS02001790YS02001791        0.01      0.01      0.01      0.53         0.01
  YS02001882YS02001884        0.51      0.51      0.52      0.01         0.01
  YS02001884YS02001887        0.55      0.55      0.56      0.01         0.01
  YS02001887YS02001890        0.57      0.57      0.58      0.16         0.01
  YS02001890YS02001895        0.51      0.51      0.60      0.01         0.01
  YS02001895YS02001898        0.49      0.49      0.51      0.01         0.01
  YS02001898YS02001901        0.51      0.51      0.54      0.01         0.01
  YS02001901YS02001904        0.54      0.54      0.54      0.01         0.01
  YS02001904YS02001907        0.54      0.54      0.79      0.01         0.01
  YS02001907YS02006553        0.95      0.95      1.01      0.01         0.01
  YS02001910YS02001907        0.60      0.60      0.77      0.01         0.01
  YS02001915YS02001910        0.51      0.51      0.60      0.01         0.01
  YS02001918YS02001915        0.43      0.43      0.51      0.01         0.01
  YS02001920YS02001918        0.43      0.43      0.44      0.01         0.01
  YS02001923YS02001920        0.39      0.39      0.44      0.01         0.01
  YS02001926YS02001923        0.16      0.16      0.18      0.01         0.01
  YS02001929YS02001926        0.02      0.02      0.18      0.01         0.01
  YS02006553YS02006556        0.69      0.69      0.79      0.01         0.01
  YS02006556YS02006558        0.73      0.73      0.80      0.01         0.01
  YS02006558YS02006561        0.46      0.67      0.46      0.89         0.46
  YS02006561YS02001783        0.40      0.40      0.57      0.01         0.01
  YS02163301YS02001633        0.85      0.85      0.90      0.01         0.03
  YS02163601YS02164001        0.77      0.77      0.90      0.31         0.01
  YS02164001YS02001641        0.75      0.77      0.75      0.75         0.56
  
  
  ***************
  Pumping Summary
  ***************
  
  ---------------------------------------------------------------------------------------------------------
                                                  Min       Avg       Max     Total     Power    % Time Off
                        Percent   Number of      Flow      Flow      Flow    Volume     Usage    Pump Curve
  Pump                 Utilized   Start-Ups       LPS       LPS       LPS  10^6 ltr     Kw-hr    Low   High
  ---------------------------------------------------------------------------------------------------------
  CC-R1                   26.61          31      0.00    683.00    683.00     5.180     84.20    0.0  100.0
  CC-R2                   26.61          31      0.00    683.00    683.00     5.180     84.20    0.0  100.0
  CC-S1                   26.61          31      0.00    200.00    200.00     1.517     11.90    0.0   35.1
  CC-S2                   26.61          31      0.00    200.00    200.00     1.517     11.90    0.0   35.1
  JK-R1                   10.61        1202      0.00    905.74   1000.00     2.331      5.43    0.0    0.0
  JK-R2                   10.61        1202      0.00    905.74   1000.00     2.331      5.43    0.0    0.0
  JK-S                    10.61        1202      0.00    294.94    300.00     0.856     19.65    0.0    0.0
  

  Analysis begun on:  Wed Feb 26 11:09:03 2025
  Analysis ended on:  Wed Feb 26 11:09:05 2025
  Total elapsed time: 00:00:02