
  EPA STORM WATER MANAGEMENT MODEL - VERSION 5.2 (Build 5.2.4)
  PYSWMM TOOLKIT API - VERSION v1.0 (2023-11-27)
  ------------------------------------------------------------

  WARNING 04: minimum elevation drop used for Conduit WS02004404WS02004405
  WARNING 03: negative offset ignored for Link YS02001904YS02001907
  
  ****************
  Analysis Options
  ****************
  Flow Units ............... LPS
  Process Models:
    Rainfall/Runoff ........ YES
    RDII ................... NO
    Snowmelt ............... NO
    Groundwater ............ NO
    Flow Routing ........... YES
    Ponding Allowed ........ NO
    Water Quality .......... NO
  Infiltration Method ...... HORTON
  Flow Routing Method ...... DYNWAVE
  Surcharge Method ......... EXTRAN
  Starting Date ............ 08/28/2015 08:00:00
  Ending Date .............. 08/28/2015 16:00:00
  Antecedent Dry Days ...... 8.0
  Report Time Step ......... 00:01:00
  Wet Time Step ............ 00:01:00
  Dry Time Step ............ 00:01:00
  Routing Time Step ........ 30.00 sec
  Variable Time Step ....... YES
  Maximum Trials ........... 8
  Number of Threads ........ 4
  Head Tolerance ........... 0.001500 m
  
  
  **************************        Volume         Depth
  Runoff Quantity Continuity     hectare-m            mm
  **************************     ---------       -------
  Total Precipitation ......         2.689        81.080
  Evaporation Loss .........         0.000         0.000
  Infiltration Loss ........         0.100         3.015
  Surface Runoff ...........         2.557        77.091
  Final Storage ............         0.033         0.996
  Continuity Error (%) .....        -0.028
  
  
  **************************        Volume        Volume
  Flow Routing Continuity        hectare-m      10^6 ltr
  **************************     ---------     ---------
  Dry Weather Inflow .......         0.025         0.248
  Wet Weather Inflow .......         2.557        25.566
  Groundwater Inflow .......         0.000         0.000
  RDII Inflow ..............         0.000         0.000
  External Inflow ..........         0.083         0.825
  External Outflow .........         2.064        20.638
  Flooding Loss ............         0.939         9.387
  Evaporation Loss .........         0.000         0.000
  Exfiltration Loss ........         0.000         0.000
  Initial Stored Volume ....         0.243         2.431
  Final Stored Volume ......         0.038         0.377
  Continuity Error (%) .....        -4.581
  
  
  *************************
  Highest Continuity Errors
  *************************
  Node JK-storage (-25.94%)
  Node WS02006256 (-15.61%)
  Node YS02001583 (-7.12%)
  Node YS02001884 (5.16%)
  
  
  ***************************
  Time-Step Critical Elements
  ***************************
  Link YS02001793JiankangQianchi (41.65%)
  Link WS02006238WS02006235 (30.82%)
  Link WS02004404WS02004405 (6.06%)
  Link WS02003066WSF200 (4.16%)
  Link WS02006235WS02006234 (3.16%)
  
  
  ********************************
  Highest Flow Instability Indexes
  ********************************
  Link WS02006256WS02006235 (58)
  Link WS02006252WS02006251 (47)
  Link WS02006235WS02006234 (41)
  Link WS02006238WS02006235 (41)
  Link WS02006113WS02006111 (34)
  
  
  *********************************
  Most Frequent Nonconverging Nodes
  *********************************
  Node CC-1 (51.01%)
  Node CC-2 (51.01%)
  Node JK-1 (51.01%)
  Node JK-2 (51.01%)
  Node WSC (51.01%)
  
  
  *************************
  Routing Time Step Summary
  *************************
  Minimum Time Step           :     0.00 sec
  Average Time Step           :     2.66 sec
  Maximum Time Step           :     6.43 sec
  % of Time in Steady State   :     0.00
  Average Iterations per Step :     5.64
  % of Steps Not Converging   :    51.01
  Time Step Frequencies       :
     30.000 - 13.228 sec      :     0.00 %
     13.228 -  5.833 sec      :     6.19 %
      5.833 -  2.572 sec      :    36.18 %
      2.572 -  1.134 sec      :    37.88 %
      1.134 -  0.500 sec      :    19.75 %
  
  
  ***************************
  Subcatchment Runoff Summary
  ***************************
  
  ------------------------------------------------------------------------------------------------------------------------------
                            Total      Total      Total      Total     Imperv       Perv      Total       Total     Peak  Runoff
                           Precip      Runon       Evap      Infil     Runoff     Runoff     Runoff      Runoff   Runoff   Coeff
  Subcatchment                 mm         mm         mm         mm         mm         mm         mm    10^6 ltr      LPS
  ------------------------------------------------------------------------------------------------------------------------------
  sub60                     81.08       0.00       0.00       1.82      70.16       7.91      78.07        1.03   747.45   0.963
  sub61                     81.08       0.00       0.00       2.63      66.17      11.16      77.33        1.42  1036.27   0.954
  sub62                     81.08       0.00       0.00       1.21      73.31       5.28      78.59        2.15  1445.22   0.969
  sub63                     81.08       0.00       0.00       4.84      56.60      18.68      75.28        1.71  1152.95   0.929
  sub64                     81.08       0.00       0.00       2.45      67.72       9.72      77.43        1.86  1179.77   0.955
  sub65                     81.08       0.00       0.00       2.12      69.29       8.42      77.72        2.14  1316.60   0.959
  sub66                     81.08       0.00       0.00       5.99      56.49      17.53      74.02        3.45  1710.42   0.913
  sub67                     81.08       0.00       0.00       1.17      73.36       5.32      78.68        1.46  1119.82   0.970
  sub68                     81.08       0.00       0.00       2.18      68.55       9.17      77.72        2.14  1489.04   0.959
  sub69                     81.08       0.00       0.00       1.94      68.81      10.23      79.04        2.93  1752.10   0.975
  sub70                     81.08       0.00       0.00       6.48      53.35      21.09      74.44        2.15   958.43   0.918
  sub71                     81.08       0.00       0.00       1.24      73.27       5.25      78.52        2.05  1275.74   0.968
  sub72                     81.08       0.00       0.00       1.10      74.01       4.57      78.58        1.08   613.87   0.969
  
  
  ******************
  Node Depth Summary
  ******************
  
  ---------------------------------------------------------------------------------
                                 Average  Maximum  Maximum  Time of Max    Reported
                                   Depth    Depth      HGL   Occurrence   Max Depth
  Node                 Type       Meters   Meters   Meters  days hr:min      Meters
  ---------------------------------------------------------------------------------
  WS02003060           JUNCTION     0.22     0.37     5.30     0  02:15        0.37
  WS02003066           JUNCTION     0.18     0.29     5.84     0  02:15        0.29
  WS02003067           JUNCTION     0.48     0.69     6.01     0  02:15        0.69
  WS02003069           JUNCTION     0.24     0.41     5.00     0  02:16        0.41
  WS02003072           JUNCTION     0.30     0.48     4.85     0  02:16        0.48
  WS02003073           JUNCTION     0.17     0.29     4.35     0  02:17        0.29
  WS02004401           JUNCTION     0.57     0.82     6.82     0  02:12        0.82
  WS02004402           JUNCTION     0.60     0.85     6.81     0  02:12        0.85
  WS02004403           JUNCTION     0.62     0.86     6.79     0  02:13        0.86
  WS02004404           JUNCTION     0.70     0.94     6.79     0  02:13        0.94
  WS02004405           JUNCTION     0.69     0.93     6.78     0  02:13        0.93
  WS02004406           JUNCTION     0.70     0.94     6.77     0  02:13        0.93
  WS02004407           JUNCTION     0.17     0.28     6.60     0  02:13        0.28
  WS02004409           JUNCTION     0.37     0.64     6.41     0  02:13        0.64
  WS02004410           JUNCTION     0.39     0.66     6.38     0  02:14        0.66
  WS02004411           JUNCTION     0.41     0.67     6.35     0  02:14        0.67
  WS02004412           JUNCTION     0.43     0.68     6.32     0  02:14        0.68
  WS02004413           JUNCTION     0.59     0.84     6.31     0  02:15        0.84
  WS02006109           JUNCTION     0.65     0.94     7.56     0  01:47        0.93
  WS02006110           JUNCTION     0.65     0.90     7.48     0  02:11        0.90
  WS02006111           JUNCTION     0.17     0.28     6.98     0  01:57        0.28
  WS02006112           JUNCTION     0.73     1.02     6.91     0  01:58        1.02
  WS02006113           JUNCTION     0.27     0.44     7.33     0  01:57        0.44
  WS02006115           JUNCTION     0.46     0.72     6.86     0  02:21        0.72
  WS02006116           JUNCTION     0.54     0.80     6.84     0  02:12        0.80
  WS02006228           JUNCTION     0.64     0.97     7.62     0  01:47        0.96
  WS02006229           JUNCTION     0.62     0.97     7.66     0  02:11        0.96
  WS02006230           JUNCTION     0.62     1.04     7.79     0  02:11        1.03
  WS02006231           JUNCTION     0.42     1.06     8.19     0  02:11        0.78
  WS02006232           JUNCTION     0.56     1.52     8.56     0  02:11        1.52
  WS02006234           JUNCTION     0.49     1.96     9.12     0  02:11        1.96
  WS02006235           JUNCTION     0.53     1.85     9.02     0  02:11        1.85
  WS02006238           JUNCTION     0.56     1.89     9.03     0  02:11        1.89
  WS02006239           JUNCTION     0.53     1.71     8.92     0  02:11        1.71
  WS02006240           JUNCTION     0.50     1.55     8.84     0  02:11        1.51
  WS02006242           JUNCTION     0.57     1.54     8.81     0  02:55        1.54
  WS02006243           JUNCTION     0.50     1.48     8.90     0  02:55        1.48
  WS02006245           JUNCTION     0.51     1.48     8.97     0  02:55        1.48
  WS02006247           JUNCTION     0.53     1.47     8.97     0  02:47        1.47
  WS02006248           JUNCTION     0.50     1.10     8.69     0  01:49        1.10
  WS02006249           JUNCTION     0.53     1.09     8.69     0  01:46        1.09
  WS02006251           JUNCTION     0.53     1.26     8.93     0  01:46        1.12
  WS02006252           JUNCTION     0.34     1.50     9.74     0  00:00        0.69
  WS02006256           JUNCTION     0.97     2.35     9.28     0  00:00        2.35
  WSF200               JUNCTION     0.16     0.28     5.51     0  02:15        0.28
  YS02001580           JUNCTION     0.19     1.05     9.59     0  01:43        0.78
  YS02001583           JUNCTION     0.23     1.14     9.64     0  01:43        1.14
  YS02001586           JUNCTION     0.35     1.13     9.30     0  01:43        1.13
  YS02001590           JUNCTION     0.46     1.39     9.25     0  01:43        1.38
  YS02001593           JUNCTION     0.40     1.31     9.17     0  01:43        1.29
  YS02001596           JUNCTION     0.53     1.68     9.09     0  01:43        1.65
  YS02001600           JUNCTION     0.63     1.87     9.00     0  01:43        1.87
  YS02001601           JUNCTION     0.82     2.06     8.90     0  01:42        2.06
  YS02001602           JUNCTION     0.71     1.87     8.77     0  01:42        1.87
  YS02001605           JUNCTION     0.65     1.78     8.68     0  01:42        1.77
  YS02001607           JUNCTION     0.60     1.65     8.50     0  01:42        1.65
  YS02001610           JUNCTION     0.64     1.68     8.48     0  01:42        1.68
  YS02001613           JUNCTION     0.61     1.69     8.54     0  01:42        1.66
  YS02001616           JUNCTION     0.54     1.61     8.52     0  01:42        1.61
  YS02001619           JUNCTION     0.52     1.61     8.54     0  01:42        1.61
  YS02001622           JUNCTION     0.51     1.62     8.52     0  01:42        1.58
  YS02001625           JUNCTION     0.74     1.78     8.38     0  01:42        1.78
  YS02001629           JUNCTION     0.65     1.85     8.40     0  01:42        1.85
  YS02001633           JUNCTION     0.72     2.06     8.51     0  01:49        2.06
  YS02001641           JUNCTION     0.67     1.97     8.40     0  01:46        1.95
  YS02001644           JUNCTION     0.65     1.92     8.35     0  01:46        1.92
  YS02001647           JUNCTION     0.43     1.84     8.45     0  01:47        1.84
  YS02001649           JUNCTION     0.47     2.05     8.44     0  01:46        2.05
  YS02001652           JUNCTION     0.35     2.16     8.76     0  01:46        2.16
  YS02001655           JUNCTION     0.26     2.20     9.05     0  01:46        2.15
  YS02001658           JUNCTION     0.20     2.30     9.44     0  01:46        1.92
  YS02001661           JUNCTION     0.21     2.46     9.86     0  01:47        1.57
  YS02001664           JUNCTION     0.10     2.13    10.06     0  01:47        0.81
  YS02001745           JUNCTION     0.11     2.00     9.52     0  01:46        0.94
  YS02001748           JUNCTION     0.17     2.27     9.35     0  01:46        1.34
  YS02001751           JUNCTION     0.21     2.20     9.08     0  01:46        1.53
  YS02001754           JUNCTION     0.29     2.20     8.81     0  01:46        1.82
  YS02001757           JUNCTION     0.47     2.21     8.47     0  01:46        2.16
  YS02001759           JUNCTION     0.41     2.19     8.56     0  01:46        2.16
  YS02001762           JUNCTION     0.40     2.15     8.55     0  01:46        2.10
  YS02001765           JUNCTION     0.38     2.10     8.55     0  01:46        2.04
  YS02001767           JUNCTION     0.38     2.03     8.52     0  01:45        1.98
  YS02001770           JUNCTION     0.39     1.95     8.44     0  01:45        1.95
  YS02001774           JUNCTION     0.45     2.01     8.43     0  01:46        2.00
  YS02001779           JUNCTION     0.28     1.68     8.37     0  01:45        1.68
  YS02001783           JUNCTION     0.38     1.50     7.64     0  01:45        1.50
  YS02001784           JUNCTION     0.38     1.25     7.32     0  01:45        1.25
  YS02001786           JUNCTION     0.31     1.02     7.05     0  01:45        0.88
  YS02001788           JUNCTION     0.23     0.63     6.60     0  01:48        0.63
  YS02001790           JUNCTION     0.27     0.73     6.37     0  01:47        0.73
  YS02001791           JUNCTION     0.16     0.44     5.91     0  01:49        0.43
  YS02001793           JUNCTION     0.10     0.26     5.09     0  01:47        0.25
  YS02001882           JUNCTION     0.47     1.83     8.55     0  01:43        1.69
  YS02001884           JUNCTION     0.56     1.91     8.52     0  01:43        1.80
  YS02001887           JUNCTION     0.63     1.91     8.44     0  01:43        1.88
  YS02001890           JUNCTION     0.66     1.81     8.32     0  01:43        1.81
  YS02001895           JUNCTION     0.44     1.57     8.31     0  01:54        1.56
  YS02001898           JUNCTION     0.45     1.56     8.30     0  01:45        1.56
  YS02001901           JUNCTION     0.55     1.68     8.29     0  01:58        1.68
  YS02001904           JUNCTION     0.53     1.65     8.28     0  01:58        1.65
  YS02001907           JUNCTION     0.84     1.96     8.25     0  01:44        1.96
  YS02001910           JUNCTION     0.66     2.02     8.52     0  01:45        1.99
  YS02001915           JUNCTION     0.49     2.00     8.72     0  01:44        1.96
  YS02001918           JUNCTION     0.32     1.81     8.88     0  01:45        1.66
  YS02001920           JUNCTION     0.39     2.10     9.11     0  01:45        1.72
  YS02001923           JUNCTION     0.25     2.03     9.29     0  01:45        1.50
  YS02001926           JUNCTION     0.27     1.90     9.35     0  01:45        1.33
  YS02001929           JUNCTION     0.17     1.78     9.47     0  01:45        1.10
  YS02006553           JUNCTION     0.84     2.04     8.33     0  01:45        2.00
  YS02006556           JUNCTION     0.81     2.10     8.41     0  01:45        2.02
  YS02006558           JUNCTION     0.85     2.16     8.43     0  01:45        2.12
  YS02006561           JUNCTION     0.24     1.27     7.93     0  01:45        1.27
  YS02163301           JUNCTION     0.67     1.93     8.45     0  01:49        1.93
  YS02163601           JUNCTION     0.74     2.05     8.45     0  01:46        2.05
  YS02164001           JUNCTION     0.66     1.97     8.43     0  01:46        1.95
  CC-1                 OUTFALL      0.00     0.00     0.00     0  00:00        0.00
  CC-2                 OUTFALL      0.00     0.00     0.00     0  00:00        0.00
  JK-1                 OUTFALL      0.00     0.00     0.00     0  00:00        0.00
  JK-2                 OUTFALL      0.00     0.00     0.00     0  00:00        0.00
  WSC                  OUTFALL      0.17     0.29     0.96     0  02:17        0.29
  CC-storage           STORAGE      0.32     1.05     6.55     0  02:29        1.05
  JK-storage           STORAGE      0.02     2.99     3.79     0  00:00        0.68
  
  
  *******************
  Node Inflow Summary
  *******************
  
  -------------------------------------------------------------------------------------------------
                                  Maximum  Maximum                  Lateral       Total        Flow
                                  Lateral    Total  Time of Max      Inflow      Inflow     Balance
                                   Inflow   Inflow   Occurrence      Volume      Volume       Error
  Node                 Type           LPS      LPS  days hr:min    10^6 ltr    10^6 ltr     Percent
  -------------------------------------------------------------------------------------------------
  WS02003060           JUNCTION     16.53   515.02     0  02:15       0.471        4.51       0.053
  WS02003066           JUNCTION      0.00   498.44     0  02:15           0        4.04       0.039
  WS02003067           JUNCTION      0.00   498.41     0  02:15           0        4.05       0.106
  WS02003069           JUNCTION      0.32   515.23     0  02:16     0.00912        4.52       0.098
  WS02003072           JUNCTION      0.00   515.11     0  02:16           0        4.51       0.174
  WS02003073           JUNCTION      1.82   516.87     0  02:17      0.0519        4.56       0.136
  WS02004401           JUNCTION      0.00   501.32     0  02:21           0        4.15       0.259
  WS02004402           JUNCTION      0.00   500.67     0  02:21           0        4.14       0.261
  WS02004403           JUNCTION      0.00   500.25     0  02:22           0        4.13       0.254
  WS02004404           JUNCTION      0.16   499.80     0  02:22     0.00462        4.12       0.211
  WS02004405           JUNCTION      0.04   499.56     0  02:22     0.00109        4.12       0.310
  WS02004406           JUNCTION      0.00   499.41     0  02:13           0         4.1       0.525
  WS02004407           JUNCTION      0.00   499.15     0  02:13           0        4.08       0.031
  WS02004409           JUNCTION      0.00   498.99     0  02:13           0        4.08       0.074
  WS02004410           JUNCTION      0.00   498.87     0  02:13           0        4.08       0.121
  WS02004411           JUNCTION      0.00   498.70     0  02:14           0        4.07       0.148
  WS02004412           JUNCTION      0.00   498.58     0  02:14           0        4.07       0.194
  WS02004413           JUNCTION      0.00   498.59     0  02:14           0        4.06       0.357
  WS02006109           JUNCTION      1.23   504.96     0  01:47      0.0351        4.21       0.261
  WS02006110           JUNCTION      0.00   505.12     0  01:47           0        4.19       0.175
  WS02006111           JUNCTION      0.00   519.67     0  01:48           0        4.19       0.032
  WS02006112           JUNCTION      0.00   505.32     0  02:21           0        4.18       0.499
  WS02006113           JUNCTION      0.00   506.32     0  01:47           0        4.19       0.044
  WS02006115           JUNCTION      0.00   510.52     0  02:21           0        4.16       0.181
  WS02006116           JUNCTION      0.00   502.93     0  02:21           0        4.16       0.081
  WS02006228           JUNCTION      0.00   504.35     0  01:47           0        4.18       0.118
  WS02006229           JUNCTION      0.00   503.85     0  01:47           0        4.18       0.125
  WS02006230           JUNCTION     10.28   534.03     0  02:11       0.293        4.19       0.150
  WS02006231           JUNCTION      0.00   517.09     0  02:11           0         3.9       0.058
  WS02006232           JUNCTION      0.00   516.05     0  02:11           0         3.9       0.189
  WS02006234           JUNCTION      0.00   513.92     0  01:46           0        3.89      -0.320
  WS02006235           JUNCTION      0.00   517.67     0  01:46           0        4.08       0.247
  WS02006238           JUNCTION      0.00   419.56     0  02:55           0        3.43       0.224
  WS02006239           JUNCTION      0.00   417.12     0  02:55           0        3.28      -0.079
  WS02006240           JUNCTION      0.00   414.43     0  02:33           0        3.24      -0.084
  WS02006242           JUNCTION      0.00   414.24     0  02:33           0        3.24      -0.011
  WS02006243           JUNCTION      0.00   414.30     0  02:32           0        3.23      -0.137
  WS02006245           JUNCTION      0.00   417.12     0  01:42           0        3.24       0.447
  WS02006247           JUNCTION      0.00   422.52     0  01:42           0        3.24      -0.048
  WS02006248           JUNCTION      0.00   416.43     0  02:35           0        3.24      -0.167
  WS02006249           JUNCTION      0.00   459.02     0  00:00           0        3.29       0.786
  WS02006251           JUNCTION      0.08   405.51     0  01:35     0.00219        3.29       0.001
  WS02006252           JUNCTION      0.00   400.00     0  00:00           0        3.27      -0.421
  WS02006256           JUNCTION      0.00   300.00     0  00:00           0        0.91     -13.504
  WSF200               JUNCTION      0.00   498.42     0  02:15           0        4.04       0.014
  YS02001580           JUNCTION      0.00   125.90     0  01:42           0     0.00436      -0.141
  YS02001583           JUNCTION      0.00   209.55     0  01:42           0      0.0152      -6.646
  YS02001586           JUNCTION    958.43   958.51     0  01:53        2.15        2.16       0.071
  YS02001590           JUNCTION      0.00   317.78     0  01:54           0        1.48      -0.035
  YS02001593           JUNCTION      0.00   317.81     0  02:10           0        1.48       0.020
  YS02001596           JUNCTION      0.00   317.84     0  01:54           0        1.48       0.009
  YS02001600           JUNCTION      0.00   317.83     0  01:54           0        1.48       0.019
  YS02001601           JUNCTION   1752.10  2069.52     0  01:51        2.93         4.4       0.022
  YS02001602           JUNCTION      0.00   546.59     0  01:42           0        2.46       0.025
  YS02001605           JUNCTION      0.00   546.54     0  01:42           0        2.34       0.028
  YS02001607           JUNCTION      0.00   546.33     0  01:42           0        2.34       0.086
  YS02001610           JUNCTION      0.00   945.13     0  01:54           0        2.83       0.090
  YS02001613           JUNCTION      0.00   608.95     0  01:54           0        2.29       0.069
  YS02001616           JUNCTION      0.00   609.00     0  01:54           0        2.29       0.026
  YS02001619           JUNCTION   1710.42  1710.42     0  01:52        3.45        5.24       0.002
  YS02001622           JUNCTION      0.00  1053.63     0  01:53           0        4.73      -0.002
  YS02001625           JUNCTION      0.00  1492.74     0  01:54           0        5.02       0.183
  YS02001629           JUNCTION      0.00   981.35     0  02:17           0        4.02       0.015
  YS02001633           JUNCTION   1316.80  1418.51     0  01:44        2.14        5.74       0.062
  YS02001641           JUNCTION      0.00  1415.50     0  01:44           0        5.33       0.056
  YS02001644           JUNCTION   1179.81  1862.71     0  01:44        1.86        7.18       0.048
  YS02001647           JUNCTION      0.00  1862.31     0  01:44           0        6.31       0.007
  YS02001649           JUNCTION      0.00  2152.42     0  01:44           0        8.03       0.006
  YS02001652           JUNCTION      0.00  1183.87     0  01:49           0        1.71      -0.066
  YS02001655           JUNCTION      0.15  1183.76     0  01:49     0.00439        1.71       0.071
  YS02001658           JUNCTION      0.00  1183.51     0  01:49           0        1.71      -0.046
  YS02001661           JUNCTION      0.00  1183.09     0  01:49           0        1.71       0.006
  YS02001664           JUNCTION   1152.95  1152.95     0  01:50        1.71        1.71      -0.023
  YS02001745           JUNCTION    747.46   747.46     0  01:50        1.03        1.03       0.090
  YS02001748           JUNCTION      0.04   764.85     0  01:49     0.00128        1.03      -0.279
  YS02001751           JUNCTION      0.01   765.59     0  01:49    0.000313        1.04       0.070
  YS02001754           JUNCTION      0.26   765.73     0  01:49     0.00741        1.05      -0.092
  YS02001757           JUNCTION      0.00  3434.01     0  01:55           0        12.2       0.047
  YS02001759           JUNCTION   1036.31  1462.77     0  01:46        1.42        3.15      -0.003
  YS02001762           JUNCTION      0.00   838.51     0  01:46           0        1.73       0.011
  YS02001765           JUNCTION      0.00   838.01     0  01:46           0        1.73       0.011
  YS02001767           JUNCTION      0.54   839.51     0  01:46      0.0152        1.73       0.003
  YS02001770           JUNCTION   1445.37  1445.37     0  01:50        2.16         2.2      -0.007
  YS02001774           JUNCTION      0.00   850.79     0  01:52           0       0.471       0.260
  YS02001779           JUNCTION      0.01   850.46     0  01:52    0.000142        0.43      -0.159
  YS02001783           JUNCTION      0.00  1170.36     0  01:49           0        4.41       0.007
  YS02001784           JUNCTION      1.06  1171.51     0  01:49      0.0302        4.44       0.012
  YS02001786           JUNCTION      0.06  1171.48     0  01:49      0.0016        4.44       0.017
  YS02001788           JUNCTION      0.07  1171.25     0  01:49     0.00202        4.45       0.007
  YS02001790           JUNCTION      0.15  1186.22     0  01:48     0.00442        4.45      -0.002
  YS02001791           JUNCTION      0.00  1301.07     0  01:49           0        4.45      -0.001
  YS02001793           JUNCTION      0.00  1254.42     0  01:47           0        4.45       0.008
  YS02001882           JUNCTION      0.00    57.77     0  01:43           0       0.013       5.220
  YS02001884           JUNCTION      0.00    99.00     0  01:43           0       0.049       5.446
  YS02001887           JUNCTION   1120.27  1120.30     0  01:50        1.48        1.51       0.300
  YS02001890           JUNCTION      0.00  1120.32     0  01:50           0        1.47       0.351
  YS02001895           JUNCTION      0.00   518.24     0  01:53           0        1.21       0.159
  YS02001898           JUNCTION      0.00   517.90     0  01:53           0        1.21       0.010
  YS02001901           JUNCTION      0.00   517.71     0  01:52           0        1.22       0.281
  YS02001904           JUNCTION      0.00   517.44     0  01:52           0        1.22       0.235
  YS02001907           JUNCTION      0.00  2717.78     0  01:51           0        4.51       0.404
  YS02001910           JUNCTION      0.00  1889.33     0  01:51           0        3.21       0.225
  YS02001915           JUNCTION   1275.76  1889.00     0  01:51        2.05        3.26       0.052
  YS02001918           JUNCTION      0.00   617.94     0  01:52           0        1.24       0.025
  YS02001920           JUNCTION      2.87   618.16     0  01:52      0.0818        1.22       0.072
  YS02001923           JUNCTION      0.04   614.56     0  01:52     0.00107        1.12      -0.036
  YS02001926           JUNCTION      0.05   867.20     0  01:45     0.00149         1.1      -0.075
  YS02001929           JUNCTION    613.87   695.05     0  01:45        1.08        1.09      -0.054
  YS02006553           JUNCTION      0.00   794.90     0  02:12           0        2.47       0.485
  YS02006556           JUNCTION      0.00   794.81     0  02:12           0        2.48       0.333
  YS02006558           JUNCTION   1489.92  1489.92     0  01:50        2.16        4.53       0.076
  YS02006561           JUNCTION      0.00  1173.59     0  01:44           0        4.41       0.002
  YS02163301           JUNCTION      0.00   981.49     0  02:17           0        4.01       0.042
  YS02163601           JUNCTION      0.11  1418.11     0  01:44     0.00313        5.32       0.096
  YS02164001           JUNCTION      0.00  1417.29     0  01:44           0        5.32       0.047
  CC-1                 OUTFALL       0.00   683.00     0  00:00           0        5.59       0.000
  CC-2                 OUTFALL       0.00   683.00     0  00:00           0        5.59       0.000
  JK-1                 OUTFALL       0.00  1000.00     0  00:00           0        2.46       0.000
  JK-2                 OUTFALL       0.00  1000.00     0  00:00           0        2.46       0.000
  WSC                  OUTFALL       0.00   516.77     0  02:17           0        4.55       0.000
  CC-storage           STORAGE       0.00  3433.18     0  01:55           0        14.4      -0.335
  JK-storage           STORAGE       0.00  1307.00     0  01:47           0         4.6     -20.600
  
  
  **********************
  Node Surcharge Summary
  **********************
  
  Surcharging occurs when water rises above the top of the highest conduit.
  ---------------------------------------------------------------------
                                               Max. Height   Min. Depth
                                   Hours       Above Crown    Below Rim
  Node                 Type      Surcharged         Meters       Meters
  ---------------------------------------------------------------------
  WS02006109           JUNCTION        1.81          0.117        1.703
  WS02006112           JUNCTION        0.41          0.024        1.656
  WS02006228           JUNCTION        1.79          0.141        2.059
  WS02006229           JUNCTION        1.82          0.169        2.281
  WS02006231           JUNCTION        0.54          0.353        1.177
  WS02006232           JUNCTION        1.89          0.820        0.660
  WS02006234           JUNCTION        1.47          1.240        0.000
  WS02006235           JUNCTION        1.81          1.144        0.146
  WS02006238           JUNCTION        1.85          1.170        0.260
  WS02006239           JUNCTION        1.82          0.967        0.323
  WS02006240           JUNCTION        1.82          0.839        0.551
  WS02006242           JUNCTION        1.92          0.811        0.009
  WS02006243           JUNCTION        1.83          0.770        0.000
  WS02006245           JUNCTION        1.83          0.771        0.079
  WS02006247           JUNCTION        1.85          0.760        0.000
  WS02006248           JUNCTION        1.82          0.380        0.000
  WS02006249           JUNCTION        1.84          0.390        0.000
  WS02006251           JUNCTION        0.74          0.232        0.948
  WS02006252           JUNCTION        2.27          1.100        0.000
  WS02006256           JUNCTION        6.62          2.050        0.000
  YS02001580           JUNCTION        0.75          0.450        0.000
  YS02001583           JUNCTION        0.75          0.500        0.000
  YS02001586           JUNCTION        0.85          0.510        0.000
  YS02001590           JUNCTION        0.93          0.738        0.012
  YS02001593           JUNCTION        0.93          0.689        0.151
  YS02001596           JUNCTION        1.04          0.945        0.125
  YS02001600           JUNCTION        1.21          1.190        0.000
  YS02001601           JUNCTION        1.56          1.440        0.000
  YS02001602           JUNCTION        1.48          1.270        0.000
  YS02001605           JUNCTION        1.43          1.180        0.000
  YS02001607           JUNCTION        0.85          0.648        0.032
  YS02001610           JUNCTION        0.88          0.680        0.000
  YS02001613           JUNCTION        0.84          0.695        0.005
  YS02001616           JUNCTION        0.79          0.610        0.000
  YS02001619           JUNCTION        0.77          0.610        0.000
  YS02001622           JUNCTION        0.76          0.620        0.000
  YS02001625           JUNCTION        0.98          0.780        0.000
  YS02001629           JUNCTION        0.64          0.470        0.000
  YS02001633           JUNCTION        0.98          1.039        0.021
  YS02001641           JUNCTION        0.85          0.965        0.135
  YS02001644           JUNCTION        0.78          0.920        0.000
  YS02001647           JUNCTION        0.51          0.841        0.059
  YS02001649           JUNCTION        0.55          1.050        0.000
  YS02001652           JUNCTION        0.42          1.130        0.000
  YS02001655           JUNCTION        0.32          1.200        0.000
  YS02001658           JUNCTION        0.24          1.300        0.000
  YS02001661           JUNCTION        0.12          1.390        0.000
  YS02001664           JUNCTION        0.01          1.133        0.177
  YS02001745           JUNCTION        0.01          0.999        0.351
  YS02001748           JUNCTION        0.17          1.190        0.000
  YS02001751           JUNCTION        0.26          1.200        0.000
  YS02001754           JUNCTION        0.33          1.150        0.000
  YS02001757           JUNCTION        0.53          1.210        0.000
  YS02001759           JUNCTION        0.47          1.194        0.016
  YS02001762           JUNCTION        0.46          1.150        0.000
  YS02001765           JUNCTION        0.43          1.100        0.000
  YS02001767           JUNCTION        0.42          1.030        0.000
  YS02001770           JUNCTION        0.40          0.920        0.000
  YS02001774           JUNCTION        0.46          1.006        0.044
  YS02001779           JUNCTION        0.35          0.680        0.000
  YS02001783           JUNCTION        0.65          0.697        0.903
  YS02001784           JUNCTION        0.62          0.455        1.035
  YS02001786           JUNCTION        0.52          0.223        1.207
  YS02001882           JUNCTION        0.59          0.830        0.000
  YS02001884           JUNCTION        0.60          0.847        0.023
  YS02001887           JUNCTION        0.64          0.856        0.094
  YS02001890           JUNCTION        0.65          0.760        0.000
  YS02001895           JUNCTION        0.58          0.567        0.183
  YS02001898           JUNCTION        0.57          0.535        0.205
  YS02001901           JUNCTION        0.62          0.678        0.192
  YS02001904           JUNCTION        0.61          0.645        0.205
  YS02001907           JUNCTION        0.85          0.950        0.000
  YS02001910           JUNCTION        0.68          1.018        0.082
  YS02001915           JUNCTION        0.59          1.000        0.000
  YS02001918           JUNCTION        0.50          0.810        0.000
  YS02001920           JUNCTION        0.52          1.099        0.041
  YS02001923           JUNCTION        0.20          0.820        0.000
  YS02001926           JUNCTION        0.23          0.900        0.000
  YS02001929           JUNCTION        0.09          0.780        0.000
  YS02006553           JUNCTION        0.86          1.044        0.146
  YS02006556           JUNCTION        0.77          1.061        0.289
  YS02006558           JUNCTION        0.76          1.062        0.338
  YS02006561           JUNCTION        0.47          0.472        0.678
  YS02163301           JUNCTION        0.96          0.934        0.096
  YS02163601           JUNCTION        1.01          1.054        0.026
  YS02164001           JUNCTION        0.87          0.973        0.127
  
  
  *********************
  Node Flooding Summary
  *********************
  
  Flooding refers to all water that overflows a node, whether it ponds or not.
  --------------------------------------------------------------------------
                                                             Total   Maximum
                                 Maximum   Time of Max       Flood    Ponded
                        Hours       Rate    Occurrence      Volume     Depth
  Node                 Flooded       LPS   days hr:min    10^6 ltr    Meters
  --------------------------------------------------------------------------
  WS02006234              0.01      7.82      0  02:11       0.000     0.000
  WS02006243              0.01      0.86      0  02:55       0.000     0.000
  WS02006247              0.01      0.54      0  02:47       0.000     0.000
  WS02006248              0.01     11.65      0  02:11       0.000     0.000
  WS02006249              0.58     42.99      0  01:46       0.022     0.000
  WS02006252              0.01    260.48      0  04:19       0.002     0.000
  WS02006256              0.88    293.19      0  00:00       0.359     0.000
  YS02001580              0.01     93.15      0  01:43       0.000     0.000
  YS02001583              0.01    172.75      0  01:43       0.000     0.000
  YS02001586              0.64    641.03      0  01:53       0.671     0.000
  YS02001600              0.01      0.50      0  01:43       0.000     0.000
  YS02001601              0.76   1671.60      0  01:51       1.944     0.000
  YS02001602              0.57     61.94      0  01:58       0.118     0.000
  YS02001605              0.01      4.71      0  01:42       0.000     0.000
  YS02001610              0.52    944.95      0  01:54       1.038     0.000
  YS02001616              0.09     23.09      0  01:42       0.000     0.000
  YS02001619              0.09     93.93      0  01:42       0.011     0.000
  YS02001622              0.01    152.21      0  01:42       0.000     0.000
  YS02001625              0.43   1492.74      0  01:54       1.399     0.000
  YS02001629              0.20    404.02      0  01:49       0.148     0.000
  YS02001644              0.23   1822.86      0  01:50       0.853     0.000
  YS02001649              0.01    195.76      0  01:47       0.003     0.000
  YS02001652              0.01     48.32      0  01:46       0.000     0.000
  YS02001655              0.01     43.29      0  01:47       0.000     0.000
  YS02001658              0.01    395.04      0  01:46       0.000     0.000
  YS02001661              0.01     67.04      0  01:47       0.000     0.000
  YS02001748              0.01    412.60      0  01:46       0.001     0.000
  YS02001751              0.01     53.73      0  01:46       0.000     0.000
  YS02001754              0.01     74.12      0  01:46       0.000     0.000
  YS02001757              0.01     66.82      0  01:46       0.000     0.000
  YS02001762              0.01      7.02      0  01:46       0.000     0.000
  YS02001765              0.01      4.41      0  01:46       0.000     0.000
  YS02001767              0.01     17.28      0  01:45       0.000     0.000
  YS02001770              0.09    213.24      0  01:50       0.032     0.000
  YS02001779              0.22    850.39      0  01:52       0.414     0.000
  YS02001882              0.01     11.26      0  01:43       0.000     0.000
  YS02001890              0.23    603.95      0  01:49       0.248     0.000
  YS02001907              0.45   2717.65      0  01:51       2.117     0.000
  YS02001915              0.01    148.86      0  01:44       0.000     0.000
  YS02001918              0.01    198.86      0  01:45       0.003     0.000
  YS02001923              0.01    247.39      0  01:45       0.001     0.000
  YS02001926              0.01    674.93      0  01:45       0.003     0.000
  YS02001929              0.01    364.37      0  01:45       0.001     0.000
  
  
  **********************
  Storage Volume Summary
  **********************
  
  ------------------------------------------------------------------------------------------------
                         Average    Avg   Evap  Exfil     Maximum    Max    Time of Max    Maximum
                          Volume   Pcnt   Pcnt   Pcnt      Volume   Pcnt     Occurrence    Outflow
  Storage Unit           1000 m³   Full   Loss   Loss     1000 m³   Full    days hr:min        LPS
  ------------------------------------------------------------------------------------------------
  CC-storage               0.899   14.0    0.0    0.0       2.934   45.8       0  02:29    1783.53
  JK-storage               0.001    0.3    0.0    0.0       0.150   51.6       0  00:00    2300.00
  
  
  ***********************
  Outfall Loading Summary
  ***********************
  
  -----------------------------------------------------------
                         Flow       Avg       Max       Total
                         Freq      Flow      Flow      Volume
  Outfall Node           Pcnt       LPS       LPS    10^6 ltr
  -----------------------------------------------------------
  CC-1                  52.67    683.00    683.00       5.587
  CC-2                  52.67    683.00    683.00       5.587
  JK-1                  19.24    913.24   1000.00       2.457
  JK-2                  19.24    913.24   1000.00       2.457
  WSC                   99.94    233.44    516.77       4.550
  -----------------------------------------------------------
  System                48.75   3425.91   3882.77      20.638
  
  
  ********************
  Link Flow Summary
  ********************
  
  -----------------------------------------------------------------------------
                                 Maximum  Time of Max   Maximum    Max/    Max/
                                  |Flow|   Occurrence   |Veloc|    Full    Full
  Link                 Type          LPS  days hr:min     m/sec    Flow   Depth
  -----------------------------------------------------------------------------
  1                    CONDUIT    516.77     0  02:17      2.77    0.18    0.29
  WS02003060WS02003069 CONDUIT    514.91     0  02:16      1.61    0.20    0.33
  WS02003066WSF200     CONDUIT    498.42     0  02:15      2.80    0.08    0.21
  WS02003067WS02003066 CONDUIT    498.44     0  02:15      1.16    0.16    0.41
  WS02003069WS02003072 CONDUIT    515.11     0  02:16      1.34    0.25    0.37
  WS02003072WS02003073 CONDUIT    515.05     0  02:17      1.40    1.11    0.36
  WS02004401WS02004402 CONDUIT    500.67     0  02:21      1.22    0.60    0.83
  WS02004402WS02004403 CONDUIT    500.25     0  02:22      1.24    0.72    0.86
  WS02004403WS02004404 CONDUIT    499.64     0  02:22      1.24    0.36    0.90
  WS02004404WS02004405 CONDUIT    499.52     0  02:22      1.45    4.89    0.93
  WS02004405WS02004406 CONDUIT    499.41     0  02:13      1.46    0.99    0.93
  WS02004406WS02004407 CONDUIT    499.15     0  02:13      1.00    0.22    0.61
  WS02004407WS02004409 CONDUIT    498.99     0  02:13      1.59    0.18    0.46
  WS02004409WS02004410 CONDUIT    498.87     0  02:13      1.06    0.65    0.65
  WS02004410WS02004411 CONDUIT    498.70     0  02:14      1.12    0.68    0.66
  WS02004411WS02004412 CONDUIT    498.58     0  02:14      1.22    0.71    0.67
  WS02004412WS02004413 CONDUIT    498.59     0  02:14      1.22    0.33    0.76
  WS02004413WS02003067 CONDUIT    498.41     0  02:15      1.07    0.21    0.58
  WS02006109WS02006110 CONDUIT    505.12     0  01:47      1.01    0.97    0.99
  WS02006110WS02006113 CONDUIT    506.32     0  01:47      1.22    0.46    0.77
  WS02006111WS02006112 CONDUIT    505.32     0  02:21      1.95    0.24    0.67
  WS02006112WS02006115 CONDUIT    510.52     0  02:21      0.82    0.30    0.85
  WS02006113WS02006111 CONDUIT    519.67     0  01:48      2.41    0.62    0.45
  WS02006115WS02006116 CONDUIT    502.93     0  02:21      1.29    0.65    0.73
  WS02006116WS02004401 CONDUIT    501.32     0  02:21      1.21    0.69    0.81
  WS02006228WS02006109 CONDUIT    503.73     0  01:47      1.06    2.20    1.00
  WS02006229WS02006228 CONDUIT    504.35     0  01:47      1.12    1.67    1.00
  WS02006230WS02006229 CONDUIT    503.85     0  01:47      1.31   11.21    1.00
  WS02006231WS02006230 CONDUIT    523.76     0  02:11      1.39    7.94    0.97
  WS02006232WS02006231 CONDUIT    517.09     0  02:11      1.34    1.08    1.00
  WS02006234WS02006232 CONDUIT    516.05     0  02:11      1.39    1.04    1.00
  WS02006235WS02006234 CONDUIT    513.92     0  01:46      1.34    5.42    1.00
  WS02006238WS02006235 CONDUIT    419.92     0  02:28      1.45    0.94    1.00
  WS02006239WS02006238 CONDUIT    419.56     0  02:55      1.11    1.34    1.00
  WS02006240WS02006239 CONDUIT    417.12     0  02:55      1.24    1.31    1.00
  WS02006242WS02006240 CONDUIT    414.43     0  02:33      1.16    1.65    1.00
  WS02006243WS02006242 CONDUIT    414.24     0  02:33      1.38    0.89    1.00
  WS02006245WS02006243 CONDUIT    414.30     0  02:32      1.44    1.23    1.00
  WS02006247WS02006245 CONDUIT    417.12     0  01:42      1.43    3.31    1.00
  WS02006248WS02006247 CONDUIT    422.52     0  01:42      1.42    0.92    1.00
  WS02006249WS02006248 CONDUIT    416.43     0  02:35      1.36    2.28    1.00
  WS02006251WS02006249 CONDUIT    459.02     0  00:00      2.11    1.32    1.00
  WS02006252WS02006251 CONDUIT    405.44     0  01:35     26.11    1.49    1.00
  WS02006256WS02006235 CONDUIT    288.91     0  00:00      4.23    3.06    1.00
  WSF200WS02003060     CONDUIT    498.49     0  02:15      2.02    0.11    0.27
  YS02001580YS02001583 CONDUIT    125.90     0  01:42      0.78    0.49    1.00
  YS02001583YS02001586 CONDUIT    178.84     0  01:42      0.75    0.27    1.00
  YS02001586YS02001590 CONDUIT    317.78     0  01:54      1.28    0.56    1.00
  YS02001590YS02001593 CONDUIT    317.81     0  02:10      1.12    1.99    1.00
  YS02001593YS02001596 CONDUIT    317.84     0  01:54      1.77    0.50    1.00
  YS02001596YS02001600 CONDUIT    317.83     0  01:54      1.24    0.62    1.00
  YS02001600YS02001601 CONDUIT    317.74     0  01:54      1.12    0.55    1.00
  YS02001601YS02001602 CONDUIT    546.59     0  01:42      1.93    1.97    1.00
  YS02001602YS02001605 CONDUIT    546.54     0  01:42      1.93   11.57    1.00
  YS02001605YS02001607 CONDUIT    546.33     0  01:42      1.93    3.00    1.00
  YS02001607YS02001610 CONDUIT    543.61     0  01:42      0.69    0.52    1.00
  YS02001610YS02001613 CONDUIT    609.01     0  01:54      0.78    0.70    1.00
  YS02001613YS02001616 CONDUIT    608.95     0  01:54      0.78    0.52    1.00
  YS02001616YS02001619 CONDUIT    609.00     0  01:54      0.78    1.06    1.00
  YS02001619YS02001622 CONDUIT   1053.63     0  01:53      1.34    1.55    1.00
  YS02001622YS02001625 CONDUIT   1053.47     0  01:53      1.34    0.56    1.00
  YS02001625YS02001629 CONDUIT    981.35     0  02:17      1.25    0.47    1.00
  YS02001629YS02163301 CONDUIT    981.49     0  02:17      1.25    1.21    1.00
  YS02001633YS02163601 CONDUIT   1418.00     0  01:44      1.81    1.49    1.00
  YS02001641YS02001644 CONDUIT   1415.15     0  01:44      1.80    4.57    1.00
  YS02001644YS02001647 CONDUIT   1862.31     0  01:44      2.39    1.09    1.00
  YS02001647YS02001649 CONDUIT   1850.76     0  01:44      2.36    0.98    1.00
  YS02001649YS02001757 CONDUIT   2150.19     0  01:44      2.74    1.30    1.00
  YS02001652YS02001649 CONDUIT   1184.27     0  01:49      1.51    0.59    1.00
  YS02001655YS02001652 CONDUIT   1183.87     0  01:49      1.51    0.57    1.00
  YS02001658YS02001655 CONDUIT   1183.61     0  01:49      1.95    0.50    1.00
  YS02001661YS02001658 CONDUIT   1183.51     0  01:49      2.39    0.46    1.00
  YS02001664YS02001661 CONDUIT   1183.09     0  01:49      2.43    0.37    1.00
  YS02001745YS02001748 CONDUIT    764.80     0  01:49      2.28    0.29    1.00
  YS02001748YS02001751 CONDUIT    765.58     0  01:49      1.79    0.39    1.00
  YS02001751YS02001754 CONDUIT    765.47     0  01:49      1.45    0.37    1.00
  YS02001754YS02001757 CONDUIT    766.04     0  01:49      0.98    0.31    1.00
  YS02001757CaochengTiaoxuchi CONDUIT   3433.18     0  01:55      7.38    1.49    0.98
  YS02001759YS02001757 CONDUIT   1462.27     0  01:46      1.86    1.04    1.00
  YS02001762YS02001759 CONDUIT    839.16     0  01:46      1.07    0.97    1.00
  YS02001765YS02001762 CONDUIT    838.51     0  01:46      1.07    0.79    1.00
  YS02001767YS02001765 CONDUIT    838.01     0  01:46      1.07    1.05    1.00
  YS02001770YS02001767 CONDUIT    838.98     0  01:46      1.07    3.32    1.00
  YS02001774YS02001770 CONDUIT    850.79     0  01:52      1.08    0.54    1.00
  YS02001779YS02001774 CONDUIT    850.46     0  01:52      1.08    0.43    1.00
  YS02001783YS02001784 CONDUIT   1170.45     0  01:49      2.33    1.61    1.00
  YS02001784YS02001785 CONDUIT   1171.42     0  01:49      2.33    2.73    1.00
  YS02001786YS02001788 CONDUIT   1171.18     0  01:49      2.49    2.26    0.89
  YS02001788YS02001790 CONDUIT   1186.06     0  01:48      2.74    0.87    0.84
  YS02001790YS02001791 CONDUIT   1301.07     0  01:49      3.44    1.42    0.71
  YS02001791YS02001793 CONDUIT   1254.42     0  01:47      6.41    0.54    0.43
  YS02001793JiankangQianchi CONDUIT   1307.00     0  01:47     24.67    0.10    0.50
  YS02001882YS02001884 CONDUIT     57.77     0  01:43      0.15    0.07    1.00
  YS02001884YS02001887 CONDUIT     99.00     0  01:43      0.13    0.13    1.00
  YS02001887YS02001890 CONDUIT   1120.32     0  01:50      1.43    1.92    1.00
  YS02001890YS02001895 CONDUIT    518.24     0  01:53      0.66    0.24    1.00
  YS02001895YS02001898 CONDUIT    517.90     0  01:53      0.66    0.90    1.00
  YS02001898YS02001901 CONDUIT    517.71     0  01:52      0.66    0.33    1.00
  YS02001901YS02001904 CONDUIT    517.44     0  01:52      0.66    0.80    1.00
  YS02001904YS02001907 CONDUIT    518.03     0  01:53      0.66    0.18    1.00
  YS02001907YS02006553 CONDUIT    794.90     0  02:12      0.88    0.94    1.00
  YS02001910YS02001907 CONDUIT   1889.29     0  01:51      2.41    1.07    1.00
  YS02001915YS02001910 CONDUIT   1889.33     0  01:51      2.41    0.94    1.00
  YS02001918YS02001915 CONDUIT    618.06     0  01:52      0.79    0.34    1.00
  YS02001920YS02001918 CONDUIT    617.94     0  01:52      0.79    0.60    1.00
  YS02001923YS02001920 CONDUIT    615.29     0  01:52      0.78    0.28    1.00
  YS02001926YS02001923 CONDUIT    614.52     0  01:52      0.97    0.88    1.00
  YS02001929YS02001926 CONDUIT    614.35     0  01:52      1.17    0.29    1.00
  YS02006553YS02006556 CONDUIT    794.81     0  02:12      1.01    0.68    1.00
  YS02006556YS02006558 CONDUIT    795.73     0  02:12      1.01    0.63    1.00
  YS02006558YS02006561 CONDUIT   1173.59     0  01:44      4.15    2.59    1.00
  YS02006561YS02001783 CONDUIT   1170.36     0  01:49      2.33    0.61    1.00
  YS02163301YS02001633 CONDUIT    981.53     0  02:16      1.25    0.92    1.00
  YS02163601YS02164001 CONDUIT   1417.29     0  01:44      1.80    1.26    1.00
  YS02164001YS02001641 CONDUIT   1415.50     0  01:44      1.80    1.93    1.00
  CC-R1                PUMP       683.00     0  00:00              1.00
  CC-R2                PUMP       683.00     0  00:00              1.00
  CC-S1                PUMP       200.00     0  00:00              1.00
  CC-S2                PUMP       200.00     0  00:00              1.00
  JK-R1                PUMP      1000.00     0  00:00              1.00
  JK-R2                PUMP      1000.00     0  00:00              1.00
  JK-S                 PUMP       300.00     0  00:00              1.00
  
  
  ***************************
  Flow Classification Summary
  ***************************
  
  -------------------------------------------------------------------------------------
                      Adjusted    ---------- Fraction of Time in Flow Class ---------- 
                       /Actual         Up    Down  Sub   Sup   Up    Down  Norm  Inlet 
  Conduit               Length    Dry  Dry   Dry   Crit  Crit  Crit  Crit  Ltd   Ctrl  
  -------------------------------------------------------------------------------------
  1                       1.00   0.00  0.00  0.00  0.00  1.00  0.00  0.00  0.29  0.00
  WS02003060WS02003069    1.00   0.00  0.00  0.00  0.97  0.03  0.00  0.00  0.75  0.00
  WS02003066WSF200        1.00   0.05  0.00  0.00  0.00  0.95  0.00  0.00  0.91  0.00
  WS02003067WS02003066    1.00   0.05  0.00  0.00  0.95  0.00  0.00  0.00  0.00  0.00
  WS02003069WS02003072    1.00   0.00  0.00  0.00  0.99  0.01  0.00  0.00  0.76  0.00
  WS02003072WS02003073    1.00   0.00  0.00  0.00  0.00  0.00  0.00  1.00  0.00  0.00
  WS02004401WS02004402    1.00   0.02  0.00  0.00  0.98  0.00  0.00  0.00  0.00  0.00
  WS02004402WS02004403    1.00   0.02  0.00  0.00  0.98  0.00  0.00  0.00  0.00  0.00
  WS02004403WS02004404    1.00   0.00  0.03  0.00  0.97  0.00  0.00  0.00  0.00  0.00
  WS02004404WS02004405    1.00   0.00  0.00  0.00  1.00  0.00  0.00  0.00  0.00  0.00
  WS02004405WS02004406    1.00   0.00  0.00  0.00  1.00  0.00  0.00  0.00  0.00  0.00
  WS02004406WS02004407    1.00   0.00  0.03  0.00  0.97  0.00  0.00  0.00  0.00  0.00
  WS02004407WS02004409    1.00   0.03  0.00  0.00  0.96  0.01  0.00  0.00  0.96  0.00
  WS02004409WS02004410    1.00   0.03  0.00  0.00  0.96  0.00  0.00  0.00  0.00  0.00
  WS02004410WS02004411    1.00   0.04  0.00  0.00  0.96  0.00  0.00  0.00  0.00  0.00
  WS02004411WS02004412    1.00   0.04  0.00  0.00  0.96  0.00  0.00  0.00  0.00  0.00
  WS02004412WS02004413    1.00   0.04  0.00  0.00  0.96  0.00  0.00  0.00  0.00  0.00
  WS02004413WS02003067    1.00   0.04  0.01  0.00  0.00  0.00  0.95  0.00  0.00  0.00
  WS02006109WS02006110    1.00   0.00  0.01  0.00  0.98  0.00  0.01  0.00  0.00  0.00
  WS02006110WS02006113    1.00   0.01  0.01  0.00  0.98  0.00  0.00  0.00  0.00  0.00
  WS02006111WS02006112    1.00   0.02  0.00  0.00  0.98  0.00  0.00  0.00  0.98  0.00
  WS02006112WS02006115    1.00   0.02  0.00  0.00  0.97  0.00  0.00  0.00  0.00  0.00
  WS02006113WS02006111    1.00   0.02  0.00  0.00  0.00  0.98  0.00  0.00  0.10  0.00
  WS02006115WS02006116    1.00   0.02  0.00  0.00  0.97  0.00  0.00  0.01  0.00  0.00
  WS02006116WS02004401    1.00   0.02  0.00  0.00  0.98  0.00  0.00  0.00  0.00  0.00
  WS02006228WS02006109    1.00   0.00  0.00  0.00  1.00  0.00  0.00  0.00  0.00  0.00
  WS02006229WS02006228    1.00   0.00  0.00  0.00  0.99  0.00  0.00  0.01  0.00  0.00
  WS02006230WS02006229    1.00   0.00  0.00  0.00  0.99  0.00  0.00  0.01  0.02  0.00
  WS02006231WS02006230    1.00   0.00  0.00  0.00  0.25  0.00  0.75  0.00  0.00  0.00
  WS02006232WS02006231    1.00   0.00  0.00  0.00  0.99  0.00  0.00  0.00  0.00  0.00
  WS02006234WS02006232    1.00   0.00  0.00  0.00  1.00  0.00  0.00  0.00  0.01  0.00
  WS02006235WS02006234    1.00   0.00  0.00  0.00  0.93  0.00  0.07  0.00  0.00  0.00
  WS02006238WS02006235    1.00   0.00  0.00  0.00  1.00  0.00  0.00  0.00  0.00  0.00
  WS02006239WS02006238    1.00   0.00  0.00  0.00  1.00  0.00  0.00  0.00  0.07  0.00
  WS02006240WS02006239    1.00   0.00  0.00  0.00  0.92  0.00  0.00  0.08  0.31  0.00
  WS02006242WS02006240    1.00   0.00  0.00  0.00  0.94  0.00  0.06  0.00  0.00  0.00
  WS02006243WS02006242    1.00   0.00  0.00  0.00  0.98  0.00  0.00  0.02  0.63  0.00
  WS02006245WS02006243    1.00   0.00  0.00  0.00  0.71  0.00  0.00  0.29  0.00  0.00
  WS02006247WS02006245    1.00   0.00  0.00  0.00  0.96  0.00  0.00  0.04  0.00  0.00
  WS02006248WS02006247    1.00   0.00  0.00  0.00  0.98  0.00  0.00  0.02  0.43  0.00
  WS02006249WS02006248    1.00   0.00  0.00  0.00  0.42  0.00  0.58  0.00  0.00  0.00
  WS02006251WS02006249    1.00   0.00  0.00  0.00  0.99  0.01  0.00  0.00  0.62  0.00
  WS02006252WS02006251    1.00   0.02  0.48  0.00  0.09  0.00  0.40  0.00  0.00  0.00
  WS02006256WS02006235    1.00   0.00  0.00  0.00  0.95  0.05  0.00  0.00  0.01  0.00
  WSF200WS02003060        1.00   0.00  0.05  0.00  0.38  0.57  0.00  0.00  0.69  0.00
  YS02001580YS02001583    1.00   0.21  0.58  0.00  0.21  0.00  0.00  0.00  0.67  0.00
  YS02001583YS02001586    1.00   0.41  0.32  0.00  0.27  0.00  0.00  0.00  0.67  0.00
  YS02001586YS02001590    1.00   0.13  0.00  0.00  0.44  0.04  0.00  0.40  0.35  0.00
  YS02001590YS02001593    1.00   0.13  0.01  0.00  0.13  0.00  0.73  0.00  0.00  0.00
  YS02001593YS02001596    1.00   0.14  0.00  0.00  0.15  0.01  0.00  0.70  0.02  0.00
  YS02001596YS02001600    1.00   0.14  0.00  0.00  0.21  0.01  0.00  0.64  0.04  0.00
  YS02001600YS02001601    1.00   0.13  0.01  0.00  0.86  0.00  0.00  0.00  0.59  0.00
  YS02001601YS02001602    1.00   0.13  0.01  0.00  0.86  0.00  0.00  0.00  0.00  0.00
  YS02001602YS02001605    1.00   0.14  0.00  0.00  0.86  0.00  0.00  0.00  0.00  0.00
  YS02001605YS02001607    1.00   0.14  0.00  0.00  0.86  0.00  0.00  0.00  0.00  0.00
  YS02001607YS02001610    1.00   0.13  0.01  0.00  0.86  0.00  0.00  0.00  0.01  0.00
  YS02001610YS02001613    1.00   0.13  0.00  0.00  0.87  0.00  0.00  0.00  0.00  0.00
  YS02001613YS02001616    1.00   0.13  0.00  0.00  0.87  0.00  0.00  0.00  0.00  0.00
  YS02001616YS02001619    1.00   0.13  0.00  0.00  0.87  0.00  0.00  0.00  0.00  0.00
  YS02001619YS02001622    1.00   0.13  0.00  0.00  0.87  0.00  0.00  0.00  0.28  0.00
  YS02001622YS02001625    1.00   0.13  0.00  0.00  0.87  0.00  0.00  0.00  0.04  0.00
  YS02001625YS02001629    1.00   0.13  0.04  0.00  0.18  0.00  0.65  0.00  0.00  0.00
  YS02001629YS02163301    1.00   0.15  0.01  0.00  0.84  0.00  0.00  0.00  0.00  0.00
  YS02001633YS02163601    1.00   0.00  0.01  0.00  0.99  0.00  0.00  0.00  0.15  0.00
  YS02001641YS02001644    1.00   0.00  0.01  0.00  0.99  0.00  0.00  0.00  0.00  0.00
  YS02001644YS02001647    1.00   0.00  0.17  0.00  0.83  0.00  0.00  0.00  0.00  0.00
  YS02001647YS02001649    1.00   0.00  0.17  0.00  0.49  0.34  0.00  0.00  0.56  0.00
  YS02001649YS02001757    1.00   0.00  0.00  0.00  0.84  0.16  0.00  0.00  0.76  0.00
  YS02001652YS02001649    1.00   0.00  0.00  0.00  0.97  0.03  0.00  0.00  0.73  0.00
  YS02001655YS02001652    1.00   0.00  0.00  0.00  0.20  0.01  0.00  0.79  0.10  0.00
  YS02001658YS02001655    1.00   0.00  0.14  0.00  0.62  0.24  0.00  0.00  0.72  0.00
  YS02001661YS02001658    1.00   0.14  0.00  0.00  0.45  0.40  0.00  0.00  0.73  0.00
  YS02001664YS02001661    1.00   0.13  0.00  0.00  0.73  0.15  0.00  0.00  0.84  0.00
  YS02001745YS02001748    1.00   0.00  0.00  0.00  0.05  0.01  0.00  0.94  0.03  0.00
  YS02001748YS02001751    1.00   0.00  0.00  0.00  0.77  0.23  0.00  0.00  0.83  0.00
  YS02001751YS02001754    1.00   0.00  0.00  0.00  0.13  0.01  0.00  0.86  0.05  0.00
  YS02001754YS02001757    1.00   0.00  0.00  0.00  1.00  0.00  0.00  0.00  0.84  0.00
  YS02001757CaochengTiaoxuchi    1.00   0.00  0.00  0.00  0.17  0.83  0.00  0.00  0.13  0.00
  YS02001759YS02001757    1.00   0.00  0.00  0.00  1.00  0.00  0.00  0.00  0.64  0.00
  YS02001762YS02001759    1.00   0.00  0.00  0.00  1.00  0.00  0.00  0.00  0.05  0.00
  YS02001765YS02001762    1.00   0.00  0.00  0.00  1.00  0.00  0.00  0.00  0.72  0.00
  YS02001767YS02001765    1.00   0.00  0.00  0.00  1.00  0.00  0.00  0.00  0.00  0.00
  YS02001770YS02001767    1.00   0.00  0.00  0.00  1.00  0.00  0.00  0.00  0.00  0.00
  YS02001774YS02001770    1.00   0.00  0.13  0.00  0.71  0.00  0.16  0.00  0.03  0.00
  YS02001779YS02001774    1.00   0.00  0.00  0.00  1.00  0.00  0.00  0.00  0.78  0.00
  YS02001783YS02001784    1.00   0.00  0.18  0.00  0.82  0.00  0.00  0.00  0.55  0.00
  YS02001784YS02001785    1.00   0.00  0.00  0.00  1.00  0.00  0.00  0.00  0.16  0.00
  YS02001786YS02001788    1.00   0.00  0.00  0.00  0.80  0.20  0.00  0.00  0.00  0.00
  YS02001788YS02001790    1.00   0.00  0.00  0.00  0.22  0.78  0.00  0.00  0.80  0.00
  YS02001790YS02001791    1.00   0.00  0.00  0.00  0.01  0.99  0.00  0.00  0.15  0.00
  YS02001791YS02001793    1.00   0.00  0.00  0.00  0.00  1.00  0.00  0.00  0.01  0.00
  YS02001793JiankangQianchi    1.00   0.00  0.00  0.00  0.00  1.00  0.00  0.00  0.13  0.00
  YS02001882YS02001884    1.00   0.15  0.01  0.00  0.84  0.00  0.00  0.00  0.00  0.00
  YS02001884YS02001887    1.00   0.06  0.05  0.00  0.89  0.00  0.00  0.00  0.00  0.00
  YS02001887YS02001890    1.00   0.00  0.00  0.00  0.97  0.00  0.03  0.00  0.00  0.00
  YS02001890YS02001895    1.00   0.00  0.16  0.00  0.84  0.00  0.00  0.00  0.00  0.00
  YS02001895YS02001898    1.00   0.16  0.00  0.00  0.82  0.00  0.02  0.00  0.00  0.00
  YS02001898YS02001901    1.00   0.16  0.00  0.00  0.83  0.00  0.00  0.00  0.01  0.00
  YS02001901YS02001904    1.00   0.16  0.00  0.00  0.84  0.00  0.00  0.00  0.00  0.00
  YS02001904YS02001907    1.00   0.00  0.16  0.00  0.84  0.00  0.00  0.00  0.00  0.00
  YS02001907YS02006553    1.00   0.00  0.02  0.00  0.98  0.00  0.00  0.00  0.00  0.00
  YS02001910YS02001907    1.00   0.00  0.00  0.00  0.97  0.00  0.00  0.03  0.12  0.00
  YS02001915YS02001910    1.00   0.00  0.00  0.00  0.97  0.03  0.00  0.00  0.15  0.00
  YS02001918YS02001915    1.00   0.00  0.01  0.00  0.98  0.02  0.00  0.00  0.73  0.00
  YS02001920YS02001918    1.00   0.00  0.01  0.00  0.99  0.00  0.00  0.00  0.00  0.00
  YS02001923YS02001920    1.00   0.00  0.00  0.00  1.00  0.00  0.00  0.00  0.91  0.00
  YS02001926YS02001923    1.00   0.00  0.07  0.00  0.07  0.00  0.85  0.00  0.00  0.00
  YS02001929YS02001926    1.00   0.00  0.13  0.00  0.87  0.00  0.00  0.00  0.81  0.00
  YS02006553YS02006556    1.00   0.01  0.00  0.00  0.99  0.00  0.00  0.00  0.03  0.00
  YS02006556YS02006558    1.00   0.00  0.00  0.00  1.00  0.00  0.00  0.00  0.00  0.00
  YS02006558YS02006561    1.00   0.17  0.00  0.00  0.07  0.75  0.00  0.00  0.18  0.00
  YS02006561YS02001783    1.00   0.17  0.00  0.00  0.10  0.72  0.00  0.00  0.67  0.00
  YS02163301YS02001633    1.00   0.00  0.15  0.00  0.85  0.00  0.00  0.00  0.00  0.00
  YS02163601YS02164001    1.00   0.00  0.08  0.00  0.92  0.00  0.00  0.00  0.00  0.00
  YS02164001YS02001641    1.00   0.01  0.08  0.00  0.92  0.00  0.00  0.00  0.06  0.00
  
  
  *************************
  Conduit Surcharge Summary
  *************************
  
  ----------------------------------------------------------------------------
                                                           Hours        Hours 
                         --------- Hours Full --------   Above Full   Capacity
  Conduit                Both Ends  Upstream  Dnstream   Normal Flow   Limited
  ----------------------------------------------------------------------------
  WS02003072WS02003073        0.01      0.01      0.01      0.77         0.01
  WS02004404WS02004405        0.01      0.01      0.01      2.55         0.01
  WS02006109WS02006110        0.01      0.01      1.88      0.01         0.01
  WS02006110WS02006113        0.01      0.01      1.85      0.01         0.01
  WS02006111WS02006112        0.01      0.01      1.93      0.01         0.01
  WS02006112WS02006115        0.01      0.01      0.41      0.01         0.01
  WS02006228WS02006109        1.81      1.88      1.81      2.17         1.81
  WS02006229WS02006228        1.79      1.82      1.79      2.05         1.79
  WS02006230WS02006229        1.95      2.00      1.95      3.39         1.95
  WS02006231WS02006230        0.01      0.01      0.59      2.65         0.01
  WS02006232WS02006231        0.53      0.53      1.89      0.53         0.01
  WS02006234WS02006232        1.76      1.76      1.89      0.04         0.37
  WS02006235WS02006234        1.46      1.46      1.81      2.52         0.33
  WS02006238WS02006235        1.83      1.83      1.91      0.01         0.01
  WS02006239WS02006238        1.85      1.89      1.85      2.02         1.36
  WS02006240WS02006239        1.82      1.84      1.82      2.01         1.44
  WS02006242WS02006240        1.82      1.82      1.95      2.08         0.01
  WS02006243WS02006242        1.84      1.84      1.92      0.01         0.05
  WS02006245WS02006243        1.83      1.84      1.83      2.03         1.64
  WS02006247WS02006245        1.83      1.86      1.83      2.23         1.83
  WS02006248WS02006247        1.83      1.83      1.85      0.01         0.04
  WS02006249WS02006248        1.82      1.82      1.83      2.17         0.01
  WS02006251WS02006249        1.83      1.84      1.83      2.10         1.76
  WS02006252WS02006251        2.27      2.27      2.27      2.27         0.01
  WS02006256WS02006235        1.78      2.56      5.34      0.85         0.20
  YS02001580YS02001583        0.75      0.75      0.77      0.01         0.01
  YS02001583YS02001586        0.75      0.75      0.85      0.01         0.01
  YS02001586YS02001590        0.86      0.86      0.93      0.01         0.01
  YS02001590YS02001593        0.93      0.93      0.95      1.03         0.01
  YS02001593YS02001596        0.94      0.94      1.04      0.01         0.01
  YS02001596YS02001600        1.09      1.09      1.21      0.01         0.01
  YS02001600YS02001601        1.28      1.28      1.56      0.01         0.01
  YS02001601YS02001602        1.48      1.48      1.60      1.24         0.01
  YS02001602YS02001605        1.43      1.43      1.48      2.30         0.01
  YS02001605YS02001607        1.37      1.43      1.37      1.54         1.37
  YS02001607YS02001610        0.85      0.85      0.88      0.01         0.01
  YS02001610YS02001613        0.84      0.84      0.88      0.01         0.01
  YS02001613YS02001616        0.79      0.79      0.84      0.01         0.01
  YS02001616YS02001619        0.77      0.77      0.79      0.07         0.06
  YS02001619YS02001622        0.76      0.77      0.76      0.98         0.75
  YS02001622YS02001625        0.76      0.76      0.98      0.01         0.01
  YS02001625YS02001629        0.64      0.64      0.98      0.01         0.01
  YS02001629YS02163301        0.95      0.95      0.96      0.42         0.40
  YS02001633YS02163601        0.98      0.98      1.01      0.55         0.54
  YS02001641YS02001644        0.78      0.85      0.78      1.62         0.77
  YS02001644YS02001647        0.51      0.51      0.78      0.04         0.01
  YS02001647YS02001649        0.51      0.51      0.55      0.01         0.01
  YS02001649YS02001757        0.53      0.55      0.53      0.45         0.35
  YS02001652YS02001649        0.44      0.44      0.55      0.01         0.01
  YS02001655YS02001652        0.32      0.32      0.42      0.01         0.01
  YS02001658YS02001655        0.24      0.24      0.32      0.01         0.01
  YS02001661YS02001658        0.12      0.12      0.24      0.01         0.01
  YS02001664YS02001661        0.01      0.01      0.15      0.01         0.01
  YS02001745YS02001748        0.01      0.01      0.16      0.01         0.01
  YS02001748YS02001751        0.22      0.22      0.26      0.01         0.01
  YS02001751YS02001754        0.26      0.26      0.33      0.01         0.01
  YS02001754YS02001757        0.35      0.35      0.53      0.01         0.01
  YS02001757CaochengTiaoxuchi        0.01      0.53      0.34      0.63         0.01
  YS02001759YS02001757        0.47      0.47      0.53      0.09         0.10
  YS02001762YS02001759        0.46      0.46      0.47      0.01         0.03
  YS02001765YS02001762        0.43      0.43      0.46      0.01         0.01
  YS02001767YS02001765        0.42      0.42      0.43      0.02         0.05
  YS02001770YS02001767        0.42      0.42      0.42      0.70         0.40
  YS02001774YS02001770        0.40      0.40      0.46      0.01         0.01
  YS02001779YS02001774        0.35      0.35      0.46      0.01         0.01
  YS02001783YS02001784        0.62      0.65      0.62      0.79         0.62
  YS02001784YS02001785        0.52      0.62      0.52      1.04         0.52
  YS02001786YS02001788        0.01      0.52      0.01      0.90         0.01
  YS02001790YS02001791        0.01      0.01      0.01      0.61         0.01
  YS02001882YS02001884        0.59      0.59      0.60      0.01         0.01
  YS02001884YS02001887        0.62      0.62      0.64      0.01         0.01
  YS02001887YS02001890        0.65      0.65      0.66      0.19         0.01
  YS02001890YS02001895        0.58      0.58      0.68      0.01         0.01
  YS02001895YS02001898        0.57      0.57      0.58      0.01         0.01
  YS02001898YS02001901        0.58      0.58      0.62      0.01         0.01
  YS02001901YS02001904        0.61      0.61      0.62      0.01         0.01
  YS02001904YS02001907        0.61      0.61      0.87      0.01         0.01
  YS02001907YS02006553        1.04      1.04      1.12      0.01         0.01
  YS02001910YS02001907        0.68      0.68      0.85      0.07         0.07
  YS02001915YS02001910        0.59      0.59      0.68      0.01         0.01
  YS02001918YS02001915        0.50      0.50      0.59      0.01         0.01
  YS02001920YS02001918        0.50      0.50      0.52      0.01         0.01
  YS02001923YS02001920        0.46      0.46      0.52      0.01         0.01
  YS02001926YS02001923        0.20      0.20      0.23      0.01         0.01
  YS02001929YS02001926        0.09      0.09      0.23      0.01         0.01
  YS02006553YS02006556        0.77      0.77      0.86      0.01         0.01
  YS02006556YS02006558        0.82      0.82      0.89      0.01         0.01
  YS02006558YS02006561        0.54      0.76      0.54      0.99         0.54
  YS02006561YS02001783        0.47      0.47      0.65      0.01         0.01
  YS02163301YS02001633        0.96      0.96      1.00      0.01         0.03
  YS02163601YS02164001        0.87      0.87      1.01      0.34         0.01
  YS02164001YS02001641        0.85      0.87      0.85      0.82         0.64
  
  
  ***************
  Pumping Summary
  ***************
  
  ---------------------------------------------------------------------------------------------------------
                                                  Min       Avg       Max     Total     Power    % Time Off
                        Percent   Number of      Flow      Flow      Flow    Volume     Usage    Pump Curve
  Pump                 Utilized   Start-Ups       LPS       LPS       LPS  10^6 ltr     Kw-hr    Low   High
  ---------------------------------------------------------------------------------------------------------
  CC-R1                   28.69          26      0.00    683.00    683.00     5.585     92.24    0.0   85.0
  CC-R2                   28.69          26      0.00    683.00    683.00     5.585     92.24    0.0   85.0
  CC-S1                   28.69          26      0.00    200.00    200.00     1.636     12.41    0.0   29.4
  CC-S2                   28.69          26      0.00    200.00    200.00     1.636     12.41    0.0   29.4
  JK-R1                   11.16        1266      0.00    913.24   1000.00     2.496      5.80    0.0    0.0
  JK-R2                   11.16        1266      0.00    913.24   1000.00     2.496      5.80    0.0    0.0
  JK-S                    11.16        1266      0.00    295.26    300.00     0.903     20.75    0.0    0.0
  

  Analysis begun on:  Wed Feb 26 11:09:29 2025
  Analysis ended on:  Wed Feb 26 11:09:31 2025
  Total elapsed time: 00:00:02