
  EPA STORM WATER MANAGEMENT MODEL - VERSION 5.2 (Build 5.2.4)
  PYSWMM TOOLKIT API - VERSION v1.0 (2023-11-27)
  ------------------------------------------------------------

  WARNING 04: minimum elevation drop used for Conduit WS02004404WS02004405
  WARNING 03: negative offset ignored for Link YS02001904YS02001907
  
  ****************
  Analysis Options
  ****************
  Flow Units ............... LPS
  Process Models:
    Rainfall/Runoff ........ YES
    RDII ................... NO
    Snowmelt ............... NO
    Groundwater ............ NO
    Flow Routing ........... YES
    Ponding Allowed ........ NO
    Water Quality .......... NO
  Infiltration Method ...... HORTON
  Flow Routing Method ...... DYNWAVE
  Surcharge Method ......... EXTRAN
  Starting Date ............ 08/28/2015 08:00:00
  Ending Date .............. 08/28/2015 16:00:00
  Antecedent Dry Days ...... 8.0
  Report Time Step ......... 00:01:00
  Wet Time Step ............ 00:01:00
  Dry Time Step ............ 00:01:00
  Routing Time Step ........ 30.00 sec
  Variable Time Step ....... YES
  Maximum Trials ........... 8
  Number of Threads ........ 4
  Head Tolerance ........... 0.001500 m
  
  
  **************************        Volume         Depth
  Runoff Quantity Continuity     hectare-m            mm
  **************************     ---------       -------
  Total Precipitation ......         1.981        59.716
  Evaporation Loss .........         0.000         0.000
  Infiltration Loss ........         0.101         3.049
  Surface Runoff ...........         1.847        55.681
  Final Storage ............         0.033         0.998
  Continuity Error (%) .....        -0.019
  
  
  **************************        Volume        Volume
  Flow Routing Continuity        hectare-m      10^6 ltr
  **************************     ---------     ---------
  Dry Weather Inflow .......         0.025         0.248
  Wet Weather Inflow .......         1.847        18.466
  Groundwater Inflow .......         0.000         0.000
  RDII Inflow ..............         0.000         0.000
  External Inflow ..........         0.083         0.825
  External Outflow .........         1.845        18.453
  Flooding Loss ............         0.448         4.477
  Evaporation Loss .........         0.000         0.000
  Exfiltration Loss ........         0.000         0.000
  Initial Stored Volume ....         0.243         2.431
  Final Stored Volume ......         0.039         0.386
  Continuity Error (%) .....        -6.126
  
  
  *************************
  Highest Continuity Errors
  *************************
  Node JK-storage (-29.52%)
  Node WS02006256 (-17.56%)
  Node YS02001884 (5.23%)
  Node YS02001583 (-4.25%)
  
  
  ***************************
  Time-Step Critical Elements
  ***************************
  Link YS02001793JiankangQianchi (39.38%)
  Link WS02006238WS02006235 (31.90%)
  Link WS02004404WS02004405 (6.97%)
  Link WS02003066WSF200 (4.25%)
  Link WS02006235WS02006234 (3.19%)
  
  
  ********************************
  Highest Flow Instability Indexes
  ********************************
  Link WS02006256WS02006235 (57)
  Link WS02006252WS02006251 (41)
  Link WS02006235WS02006234 (39)
  Link WS02006238WS02006235 (37)
  Link WS02006113WS02006111 (35)
  
  
  *********************************
  Most Frequent Nonconverging Nodes
  *********************************
  Node CC-1 (46.95%)
  Node CC-2 (46.95%)
  Node JK-1 (46.95%)
  Node JK-2 (46.95%)
  Node WSC (46.95%)
  
  
  *************************
  Routing Time Step Summary
  *************************
  Minimum Time Step           :     0.00 sec
  Average Time Step           :     2.73 sec
  Maximum Time Step           :     6.43 sec
  % of Time in Steady State   :     0.00
  Average Iterations per Step :     5.44
  % of Steps Not Converging   :    46.95
  Time Step Frequencies       :
     30.000 - 13.228 sec      :     0.00 %
     13.228 -  5.833 sec      :     6.86 %
      5.833 -  2.572 sec      :    37.26 %
      2.572 -  1.134 sec      :    36.78 %
      1.134 -  0.500 sec      :    19.10 %
  
  
  ***************************
  Subcatchment Runoff Summary
  ***************************
  
  ------------------------------------------------------------------------------------------------------------------------------
                            Total      Total      Total      Total     Imperv       Perv      Total       Total     Peak  Runoff
                           Precip      Runon       Evap      Infil     Runoff     Runoff     Runoff      Runoff   Runoff   Coeff
  Subcatchment                 mm         mm         mm         mm         mm         mm         mm    10^6 ltr      LPS
  ------------------------------------------------------------------------------------------------------------------------------
  sub60                     59.72       0.00       0.00       1.81      51.34       5.36      56.70        0.75   508.97   0.950
  sub61                     59.72       0.00       0.00       2.63      48.43       7.52      55.95        1.03   707.81   0.937
  sub62                     59.72       0.00       0.00       1.21      53.65       3.57      57.22        1.57   997.72   0.958
  sub63                     59.72       0.00       0.00       4.90      41.43      12.42      53.85        1.22   807.41   0.902
  sub64                     59.72       0.00       0.00       2.47      49.55       6.49      56.04        1.35   818.65   0.938
  sub65                     59.72       0.00       0.00       2.14      50.69       5.63      56.32        1.55   914.39   0.943
  sub66                     59.72       0.00       0.00       6.10      41.32      11.22      52.53        2.45  1232.66   0.880
  sub67                     59.72       0.00       0.00       1.15      53.69       3.62      57.32        1.07   757.92   0.960
  sub68                     59.72       0.00       0.00       2.18      50.17       6.18      56.35        1.55  1023.86   0.944
  sub69                     59.72       0.00       0.00       1.97      50.64       6.99      57.63        2.13  1215.65   0.965
  sub70                     59.72       0.00       0.00       6.59      39.24      13.71      52.96        1.53   692.44   0.887
  sub71                     59.72       0.00       0.00       1.24      53.61       3.54      57.14        1.49   882.82   0.957
  sub72                     59.72       0.00       0.00       1.11      54.13       3.07      57.20        0.79   432.35   0.958
  
  
  ******************
  Node Depth Summary
  ******************
  
  ---------------------------------------------------------------------------------
                                 Average  Maximum  Maximum  Time of Max    Reported
                                   Depth    Depth      HGL   Occurrence   Max Depth
  Node                 Type       Meters   Meters   Meters  days hr:min      Meters
  ---------------------------------------------------------------------------------
  WS02003060           JUNCTION     0.21     0.37     5.30     0  02:35        0.37
  WS02003066           JUNCTION     0.18     0.29     5.84     0  02:34        0.29
  WS02003067           JUNCTION     0.47     0.69     6.01     0  02:34        0.69
  WS02003069           JUNCTION     0.23     0.41     5.00     0  02:39        0.41
  WS02003072           JUNCTION     0.29     0.48     4.85     0  02:40        0.48
  WS02003073           JUNCTION     0.16     0.29     4.35     0  02:40        0.29
  WS02004401           JUNCTION     0.55     0.82     6.82     0  02:31        0.82
  WS02004402           JUNCTION     0.58     0.85     6.81     0  02:31        0.85
  WS02004403           JUNCTION     0.61     0.87     6.80     0  02:32        0.87
  WS02004404           JUNCTION     0.68     0.94     6.79     0  02:32        0.94
  WS02004405           JUNCTION     0.68     0.93     6.78     0  02:32        0.93
  WS02004406           JUNCTION     0.69     0.94     6.77     0  02:32        0.94
  WS02004407           JUNCTION     0.16     0.28     6.60     0  02:32        0.28
  WS02004409           JUNCTION     0.35     0.64     6.41     0  02:33        0.64
  WS02004410           JUNCTION     0.38     0.66     6.38     0  02:33        0.66
  WS02004411           JUNCTION     0.40     0.67     6.35     0  02:33        0.67
  WS02004412           JUNCTION     0.42     0.68     6.32     0  02:38        0.68
  WS02004413           JUNCTION     0.58     0.84     6.31     0  02:34        0.84
  WS02006109           JUNCTION     0.62     0.94     7.56     0  02:41        0.93
  WS02006110           JUNCTION     0.63     0.90     7.48     0  02:41        0.89
  WS02006111           JUNCTION     0.17     0.28     6.98     0  02:31        0.28
  WS02006112           JUNCTION     0.71     1.02     6.90     0  02:26        1.02
  WS02006113           JUNCTION     0.25     0.44     7.33     0  02:41        0.44
  WS02006115           JUNCTION     0.44     0.72     6.86     0  02:31        0.72
  WS02006116           JUNCTION     0.53     0.80     6.84     0  02:31        0.80
  WS02006228           JUNCTION     0.62     0.98     7.63     0  02:41        0.96
  WS02006229           JUNCTION     0.59     0.97     7.67     0  02:41        0.95
  WS02006230           JUNCTION     0.59     1.05     7.79     0  02:41        1.02
  WS02006231           JUNCTION     0.40     1.09     8.21     0  02:41        0.79
  WS02006232           JUNCTION     0.53     1.59     8.63     0  02:41        1.59
  WS02006234           JUNCTION     0.45     1.96     9.12     0  02:41        1.96
  WS02006235           JUNCTION     0.49     2.00     9.16     0  02:30        2.00
  WS02006238           JUNCTION     0.52     2.15     9.29     0  02:30        2.15
  WS02006239           JUNCTION     0.49     2.03     9.24     0  02:30        2.03
  WS02006240           JUNCTION     0.45     1.95     9.24     0  02:30        1.95
  WS02006242           JUNCTION     0.52     1.55     8.82     0  02:12        1.55
  WS02006243           JUNCTION     0.45     1.48     8.90     0  02:12        1.48
  WS02006245           JUNCTION     0.46     1.56     9.04     0  02:12        1.56
  WS02006247           JUNCTION     0.48     1.47     8.97     0  02:38        1.47
  WS02006248           JUNCTION     0.45     1.10     8.69     0  02:19        1.10
  WS02006249           JUNCTION     0.48     1.09     8.69     0  02:13        1.09
  WS02006251           JUNCTION     0.48     1.14     8.81     0  02:16        1.13
  WS02006252           JUNCTION     0.31     1.50     9.74     0  00:00        0.69
  WS02006256           JUNCTION     0.93     2.35     9.28     0  00:00        2.35
  WSF200               JUNCTION     0.15     0.28     5.51     0  02:34        0.28
  YS02001580           JUNCTION     0.15     1.05     9.59     0  02:13        0.80
  YS02001583           JUNCTION     0.18     1.14     9.64     0  02:13        1.14
  YS02001586           JUNCTION     0.29     1.13     9.30     0  02:13        1.13
  YS02001590           JUNCTION     0.40     1.40     9.26     0  02:13        1.40
  YS02001593           JUNCTION     0.34     1.32     9.18     0  02:13        1.30
  YS02001596           JUNCTION     0.46     1.68     9.09     0  02:13        1.67
  YS02001600           JUNCTION     0.55     1.87     9.00     0  02:13        1.87
  YS02001601           JUNCTION     0.74     2.06     8.90     0  02:12        2.06
  YS02001602           JUNCTION     0.64     1.87     8.77     0  02:12        1.87
  YS02001605           JUNCTION     0.59     1.78     8.68     0  02:36        1.78
  YS02001607           JUNCTION     0.54     1.66     8.50     0  02:36        1.66
  YS02001610           JUNCTION     0.58     1.68     8.48     0  02:17        1.68
  YS02001613           JUNCTION     0.54     1.70     8.54     0  02:38        1.70
  YS02001616           JUNCTION     0.48     1.60     8.52     0  02:23        1.60
  YS02001619           JUNCTION     0.46     1.60     8.53     0  02:23        1.60
  YS02001622           JUNCTION     0.44     1.57     8.48     0  02:23        1.57
  YS02001625           JUNCTION     0.68     1.78     8.38     0  02:17        1.78
  YS02001629           JUNCTION     0.58     1.85     8.40     0  02:19        1.85
  YS02001633           JUNCTION     0.65     2.01     8.47     0  02:20        1.99
  YS02001641           JUNCTION     0.61     1.94     8.38     0  02:21        1.94
  YS02001644           JUNCTION     0.59     1.92     8.35     0  02:21        1.92
  YS02001647           JUNCTION     0.36     1.75     8.36     0  02:21        1.73
  YS02001649           JUNCTION     0.40     1.96     8.35     0  02:22        1.94
  YS02001652           JUNCTION     0.28     1.78     8.38     0  02:25        1.78
  YS02001655           JUNCTION     0.20     1.79     8.64     0  02:19        1.57
  YS02001658           JUNCTION     0.15     1.34     8.48     0  02:24        1.33
  YS02001661           JUNCTION     0.17     1.12     8.52     0  02:24        1.10
  YS02001664           JUNCTION     0.08     0.48     8.41     0  02:24        0.45
  YS02001745           JUNCTION     0.08     0.74     8.26     0  02:24        0.73
  YS02001748           JUNCTION     0.13     1.95     9.03     0  02:21        1.16
  YS02001751           JUNCTION     0.16     1.79     8.67     0  02:20        1.34
  YS02001754           JUNCTION     0.22     1.78     8.39     0  02:21        1.61
  YS02001757           JUNCTION     0.41     1.99     8.25     0  02:21        1.95
  YS02001759           JUNCTION     0.35     1.97     8.34     0  02:22        1.94
  YS02001762           JUNCTION     0.33     1.96     8.36     0  02:21        1.92
  YS02001765           JUNCTION     0.31     1.94     8.39     0  02:22        1.88
  YS02001767           JUNCTION     0.31     1.92     8.41     0  02:22        1.87
  YS02001770           JUNCTION     0.32     1.93     8.43     0  02:21        1.91
  YS02001774           JUNCTION     0.38     2.00     8.42     0  02:18        1.97
  YS02001779           JUNCTION     0.21     1.68     8.37     0  02:18        1.68
  YS02001783           JUNCTION     0.34     1.32     7.46     0  02:18        1.23
  YS02001784           JUNCTION     0.35     1.29     7.36     0  02:38        1.29
  YS02001786           JUNCTION     0.29     0.91     6.94     0  02:18        0.87
  YS02001788           JUNCTION     0.21     0.62     6.60     0  02:23        0.62
  YS02001790           JUNCTION     0.25     0.72     6.37     0  02:26        0.71
  YS02001791           JUNCTION     0.15     0.44     5.91     0  02:26        0.43
  YS02001793           JUNCTION     0.09     0.25     5.09     0  02:26        0.25
  YS02001882           JUNCTION     0.42     1.66     8.38     0  02:18        1.64
  YS02001884           JUNCTION     0.50     1.75     8.37     0  02:18        1.74
  YS02001887           JUNCTION     0.58     1.83     8.37     0  02:23        1.83
  YS02001890           JUNCTION     0.60     1.81     8.32     0  02:18        1.81
  YS02001895           JUNCTION     0.39     1.57     8.32     0  02:38        1.56
  YS02001898           JUNCTION     0.39     1.57     8.31     0  02:38        1.56
  YS02001901           JUNCTION     0.50     1.68     8.29     0  02:24        1.67
  YS02001904           JUNCTION     0.48     1.64     8.27     0  02:27        1.64
  YS02001907           JUNCTION     0.78     1.96     8.25     0  02:18        1.96
  YS02001910           JUNCTION     0.60     2.02     8.52     0  02:18        1.95
  YS02001915           JUNCTION     0.42     1.97     8.69     0  02:18        1.90
  YS02001918           JUNCTION     0.25     1.81     8.88     0  02:18        1.81
  YS02001920           JUNCTION     0.33     2.11     9.12     0  02:18        1.79
  YS02001923           JUNCTION     0.20     2.03     9.29     0  02:18        1.50
  YS02001926           JUNCTION     0.22     1.90     9.35     0  02:18        1.32
  YS02001929           JUNCTION     0.13     1.78     9.47     0  02:18        1.17
  YS02006553           JUNCTION     0.78     1.99     8.27     0  02:18        1.97
  YS02006556           JUNCTION     0.76     1.97     8.28     0  02:18        1.95
  YS02006558           JUNCTION     0.80     2.02     8.28     0  02:18        2.01
  YS02006561           JUNCTION     0.21     1.06     7.72     0  02:18        0.90
  YS02163301           JUNCTION     0.60     1.92     8.43     0  02:19        1.91
  YS02163601           JUNCTION     0.67     2.04     8.43     0  02:20        2.01
  YS02164001           JUNCTION     0.60     1.95     8.41     0  02:20        1.93
  CC-1                 OUTFALL      0.00     0.00     0.00     0  00:00        0.00
  CC-2                 OUTFALL      0.00     0.00     0.00     0  00:00        0.00
  JK-1                 OUTFALL      0.00     0.00     0.00     0  00:00        0.00
  JK-2                 OUTFALL      0.00     0.00     0.00     0  00:00        0.00
  WSC                  OUTFALL      0.16     0.29     0.96     0  02:40        0.29
  CC-storage           STORAGE      0.19     0.80     6.30     0  00:00        0.78
  JK-storage           STORAGE      0.02     2.99     3.79     0  00:00        0.68
  
  
  *******************
  Node Inflow Summary
  *******************
  
  -------------------------------------------------------------------------------------------------
                                  Maximum  Maximum                  Lateral       Total        Flow
                                  Lateral    Total  Time of Max      Inflow      Inflow     Balance
                                   Inflow   Inflow   Occurrence      Volume      Volume       Error
  Node                 Type           LPS      LPS  days hr:min    10^6 ltr    10^6 ltr     Percent
  -------------------------------------------------------------------------------------------------
  WS02003060           JUNCTION     16.53   515.68     0  02:34       0.471        4.11       0.060
  WS02003066           JUNCTION      0.00   499.01     0  02:34           0        3.64       0.043
  WS02003067           JUNCTION      0.00   498.92     0  02:34           0        3.64       0.118
  WS02003069           JUNCTION      0.32   515.88     0  02:35     0.00912        4.11       0.108
  WS02003072           JUNCTION      0.00   515.68     0  02:39           0        4.11       0.190
  WS02003073           JUNCTION      1.82   517.37     0  02:40      0.0519        4.15       0.151
  WS02004401           JUNCTION      0.00   501.39     0  02:31           0        3.75       0.286
  WS02004402           JUNCTION      0.00   501.11     0  02:31           0        3.74       0.289
  WS02004403           JUNCTION      0.00   500.71     0  02:32           0        3.73       0.282
  WS02004404           JUNCTION      0.16   500.77     0  02:32     0.00462        3.72       0.234
  WS02004405           JUNCTION      0.04   500.64     0  02:32     0.00109        3.72       0.343
  WS02004406           JUNCTION      0.00   500.44     0  02:32           0         3.7       0.583
  WS02004407           JUNCTION      0.00   500.22     0  02:32           0        3.68       0.036
  WS02004409           JUNCTION      0.00   499.96     0  02:32           0        3.68       0.082
  WS02004410           JUNCTION      0.00   499.82     0  02:33           0        3.68       0.134
  WS02004411           JUNCTION      0.00   499.53     0  02:33           0        3.67       0.164
  WS02004412           JUNCTION      0.00   499.46     0  02:33           0        3.67       0.215
  WS02004413           JUNCTION      0.00   499.33     0  02:34           0        3.66       0.397
  WS02006109           JUNCTION      1.23   506.20     0  02:41      0.0351         3.8       0.299
  WS02006110           JUNCTION      0.00   506.27     0  02:41           0        3.79       0.196
  WS02006111           JUNCTION      0.00   520.14     0  02:30           0        3.78       0.036
  WS02006112           JUNCTION      0.00   505.03     0  02:31           0        3.78       0.554
  WS02006113           JUNCTION      0.00   504.71     0  02:41           0        3.79       0.048
  WS02006115           JUNCTION      0.00   505.18     0  02:31           0        3.76       0.201
  WS02006116           JUNCTION      0.00   502.04     0  02:31           0        3.75       0.089
  WS02006228           JUNCTION      0.00   504.92     0  02:41           0        3.77       0.133
  WS02006229           JUNCTION      0.00   504.28     0  02:41           0        3.78       0.126
  WS02006230           JUNCTION     10.28   544.52     0  02:41       0.293        3.79       0.169
  WS02006231           JUNCTION      0.00   525.13     0  02:41           0        3.49       0.057
  WS02006232           JUNCTION      0.00   522.79     0  02:41           0         3.5       0.205
  WS02006234           JUNCTION      0.00   515.60     0  02:41           0        3.49      -0.352
  WS02006235           JUNCTION      0.00   509.99     0  02:30           0        3.67       0.379
  WS02006238           JUNCTION      0.00   418.65     0  02:52           0        3.05       0.164
  WS02006239           JUNCTION      0.00   417.48     0  02:52           0        2.91      -0.111
  WS02006240           JUNCTION      0.00   411.92     0  02:49           0        2.87      -0.074
  WS02006242           JUNCTION      0.00   412.05     0  02:49           0        2.87      -0.013
  WS02006243           JUNCTION      0.00   413.23     0  03:05           0        2.86      -0.283
  WS02006245           JUNCTION      0.00   417.72     0  02:10           0        2.87       0.587
  WS02006247           JUNCTION      0.00   420.98     0  02:08           0        2.87      -0.064
  WS02006248           JUNCTION      0.00   427.90     0  02:08           0        2.86      -0.351
  WS02006249           JUNCTION      0.00   461.22     0  02:06           0        2.91       0.997
  WS02006251           JUNCTION      0.08   405.47     0  01:50     0.00219        2.91       0.041
  WS02006252           JUNCTION      0.00   400.00     0  00:00           0        2.89      -0.752
  WS02006256           JUNCTION      0.00   317.00     0  01:37           0       0.845     -14.937
  WSF200               JUNCTION      0.00   498.98     0  02:34           0        3.64       0.016
  YS02001580           JUNCTION      0.00    76.60     0  02:12           0     0.00404       1.783
  YS02001583           JUNCTION      0.00   128.49     0  02:12           0      0.0154      -4.076
  YS02001586           JUNCTION    692.44   692.55     0  02:26        1.53        1.54       0.071
  YS02001590           JUNCTION      0.00   319.80     0  02:38           0        1.26      -0.036
  YS02001593           JUNCTION      0.00   319.17     0  02:38           0        1.26       0.018
  YS02001596           JUNCTION      0.00   317.92     0  02:27           0        1.26       0.002
  YS02001600           JUNCTION      0.00   318.04     0  02:41           0        1.26       0.028
  YS02001601           JUNCTION   1215.65  1533.26     0  02:26        2.13        3.39       0.030
  YS02001602           JUNCTION      0.00   510.20     0  02:47           0        2.24       0.024
  YS02001605           JUNCTION      0.00   510.10     0  02:47           0        2.16       0.031
  YS02001607           JUNCTION      0.00   510.35     0  02:47           0        2.16       0.096
  YS02001610           JUNCTION      0.00   657.15     0  02:26           0        2.31       0.108
  YS02001613           JUNCTION      0.00   510.78     0  02:47           0        1.96       0.091
  YS02001616           JUNCTION      0.00   511.15     0  02:47           0        1.96       0.029
  YS02001619           JUNCTION   1232.66  1232.66     0  02:26        2.45        4.26       0.003
  YS02001622           JUNCTION      0.00   972.86     0  02:40           0        4.11       0.006
  YS02001625           JUNCTION      0.00  1287.31     0  02:26           0        4.24       0.214
  YS02001629           JUNCTION      0.00   972.42     0  02:40           0        3.59       0.030
  YS02001633           JUNCTION    914.59  1358.77     0  02:17        1.56           5       0.075
  YS02001641           JUNCTION      0.00  1356.86     0  02:17           0        4.86       0.060
  YS02001644           JUNCTION    818.69  1742.83     0  02:17        1.35         6.2       0.057
  YS02001647           JUNCTION      0.00  1742.88     0  02:17           0           6       0.007
  YS02001649           JUNCTION      0.00  1999.15     0  02:18           0        7.22       0.005
  YS02001652           JUNCTION      0.00   839.20     0  02:25           0        1.23      -0.061
  YS02001655           JUNCTION      0.15   838.88     0  02:25     0.00439        1.23       0.038
  YS02001658           JUNCTION      0.00   838.79     0  02:25           0        1.22      -0.003
  YS02001661           JUNCTION      0.00   877.94     0  02:24           0        1.22       0.002
  YS02001664           JUNCTION    807.41   807.41     0  02:25        1.22        1.22      -0.004
  YS02001745           JUNCTION    508.98   508.98     0  02:25       0.745       0.745       0.091
  YS02001748           JUNCTION      0.04   550.80     0  02:21     0.00128       0.746      -0.163
  YS02001751           JUNCTION      0.01   520.01     0  02:24    0.000313        0.75       0.058
  YS02001754           JUNCTION      0.26   519.86     0  02:24     0.00741        0.76      -0.068
  YS02001757           JUNCTION      0.00  3392.59     0  02:25           0        10.5       0.018
  YS02001759           JUNCTION    707.85  1373.14     0  02:24        1.03        2.54      -0.004
  YS02001762           JUNCTION      0.00   803.32     0  02:28           0        1.51       0.010
  YS02001765           JUNCTION      0.00   802.58     0  02:28           0        1.51       0.008
  YS02001767           JUNCTION      0.54   802.46     0  02:28      0.0152        1.51       0.013
  YS02001770           JUNCTION    997.87   997.87     0  02:25        1.57        1.61      -0.001
  YS02001774           JUNCTION      0.00   342.59     0  02:25           0       0.135       0.907
  YS02001779           JUNCTION      0.01   342.85     0  02:25    0.000142      0.0934      -0.199
  YS02001783           JUNCTION      0.00  1162.66     0  02:24           0        3.88       0.008
  YS02001784           JUNCTION      1.06  1163.76     0  02:24      0.0302         3.9       0.015
  YS02001786           JUNCTION      0.06  1163.69     0  02:24      0.0016        3.91       0.018
  YS02001788           JUNCTION      0.07  1163.75     0  02:24     0.00202        3.91       0.007
  YS02001790           JUNCTION      0.15  1173.88     0  02:23     0.00442        3.91       0.003
  YS02001791           JUNCTION      0.00  1290.46     0  02:26           0        3.91       0.003
  YS02001793           JUNCTION      0.00  1244.53     0  02:24           0        3.91       0.014
  YS02001882           JUNCTION      0.00    39.29     0  02:15           0      0.0126       5.799
  YS02001884           JUNCTION      0.00    43.99     0  02:14           0      0.0481       5.524
  YS02001887           JUNCTION    758.37   758.37     0  02:25        1.08        1.11       0.409
  YS02001890           JUNCTION      0.00   758.98     0  02:25           0        1.07       0.489
  YS02001895           JUNCTION      0.00   516.67     0  02:28           0        1.01       0.153
  YS02001898           JUNCTION      0.00   516.70     0  02:28           0           1       0.049
  YS02001901           JUNCTION      0.00   516.81     0  02:27           0        1.01       0.328
  YS02001904           JUNCTION      0.00   516.69     0  02:27           0        1.01       0.298
  YS02001907           JUNCTION      0.00  1852.07     0  02:25           0        3.37       0.542
  YS02001910           JUNCTION      0.00  1336.41     0  02:25           0        2.36       0.307
  YS02001915           JUNCTION    882.84  1335.76     0  02:25        1.49        2.39       0.070
  YS02001918           JUNCTION      0.00   453.94     0  02:25           0       0.916       0.032
  YS02001920           JUNCTION      2.87   453.65     0  02:25      0.0818       0.903       0.113
  YS02001923           JUNCTION      0.04   450.17     0  02:25     0.00107       0.809      -0.031
  YS02001926           JUNCTION      0.05   449.96     0  02:25     0.00149       0.794       0.030
  YS02001929           JUNCTION    432.35   432.35     0  02:26       0.786       0.787      -0.077
  YS02006553           JUNCTION      0.00   825.10     0  02:38           0        2.35       0.515
  YS02006556           JUNCTION      0.00   826.43     0  02:38           0        2.35       0.356
  YS02006558           JUNCTION   1024.74  1163.16     0  02:24        1.58         3.9       0.088
  YS02006561           JUNCTION      0.00  1162.69     0  02:24           0        3.88       0.003
  YS02163301           JUNCTION      0.00   973.48     0  02:40           0        3.58       0.049
  YS02163601           JUNCTION      0.11  1358.43     0  02:17     0.00313        4.86       0.106
  YS02164001           JUNCTION      0.00  1358.35     0  02:17           0        4.85       0.055
  CC-1                 OUTFALL       0.00   683.00     0  00:00           0        4.93       0.000
  CC-2                 OUTFALL       0.00   683.00     0  00:00           0        4.93       0.000
  JK-1                 OUTFALL       0.00  1000.00     0  00:00           0        2.22       0.000
  JK-2                 OUTFALL       0.00  1000.00     0  00:00           0        2.22       0.000
  WSC                  OUTFALL       0.00   517.21     0  02:40           0        4.15       0.000
  CC-storage           STORAGE       0.00  3392.19     0  02:25           0        12.7      -0.346
  JK-storage           STORAGE       0.00  1283.24     0  02:19           0        4.06     -22.791
  
  
  **********************
  Node Surcharge Summary
  **********************
  
  Surcharging occurs when water rises above the top of the highest conduit.
  ---------------------------------------------------------------------
                                               Max. Height   Min. Depth
                                   Hours       Above Crown    Below Rim
  Node                 Type      Surcharged         Meters       Meters
  ---------------------------------------------------------------------
  WS02006109           JUNCTION        1.40          0.118        1.702
  WS02006112           JUNCTION        0.37          0.022        1.658
  WS02006228           JUNCTION        1.39          0.149        2.051
  WS02006229           JUNCTION        1.42          0.174        2.276
  WS02006231           JUNCTION        0.42          0.381        1.149
  WS02006232           JUNCTION        1.51          0.894        0.586
  WS02006234           JUNCTION        1.07          1.240        0.000
  WS02006235           JUNCTION        1.40          1.290        0.000
  WS02006238           JUNCTION        1.45          1.430        0.000
  WS02006239           JUNCTION        1.41          1.290        0.000
  WS02006240           JUNCTION        1.42          1.242        0.148
  WS02006242           JUNCTION        1.52          0.820        0.000
  WS02006243           JUNCTION        1.43          0.770        0.000
  WS02006245           JUNCTION        1.43          0.850        0.000
  WS02006247           JUNCTION        1.45          0.760        0.000
  WS02006248           JUNCTION        1.42          0.380        0.000
  WS02006249           JUNCTION        1.44          0.390        0.000
  WS02006251           JUNCTION        0.58          0.110        1.070
  WS02006252           JUNCTION        2.00          1.100        0.000
  WS02006256           JUNCTION        6.54          2.050        0.000
  YS02001580           JUNCTION        0.56          0.450        0.000
  YS02001583           JUNCTION        0.56          0.500        0.000
  YS02001586           JUNCTION        0.65          0.510        0.000
  YS02001590           JUNCTION        0.73          0.750        0.000
  YS02001593           JUNCTION        0.73          0.696        0.144
  YS02001596           JUNCTION        0.85          0.945        0.125
  YS02001600           JUNCTION        1.01          1.190        0.000
  YS02001601           JUNCTION        1.36          1.440        0.000
  YS02001602           JUNCTION        1.24          1.270        0.000
  YS02001605           JUNCTION        1.18          1.180        0.000
  YS02001607           JUNCTION        0.66          0.656        0.024
  YS02001610           JUNCTION        0.69          0.680        0.000
  YS02001613           JUNCTION        0.66          0.700        0.000
  YS02001616           JUNCTION        0.61          0.604        0.006
  YS02001619           JUNCTION        0.60          0.602        0.008
  YS02001622           JUNCTION        0.59          0.571        0.049
  YS02001625           JUNCTION        0.79          0.780        0.000
  YS02001629           JUNCTION        0.49          0.470        0.000
  YS02001633           JUNCTION        0.80          0.992        0.068
  YS02001641           JUNCTION        0.67          0.944        0.156
  YS02001644           JUNCTION        0.60          0.920        0.000
  YS02001647           JUNCTION        0.35          0.754        0.146
  YS02001649           JUNCTION        0.38          0.963        0.087
  YS02001652           JUNCTION        0.28          0.753        0.377
  YS02001655           JUNCTION        0.22          0.791        0.409
  YS02001658           JUNCTION        0.15          0.337        0.963
  YS02001661           JUNCTION        0.01          0.047        1.343
  YS02001748           JUNCTION        0.08          0.870        0.320
  YS02001751           JUNCTION        0.16          0.792        0.408
  YS02001754           JUNCTION        0.21          0.734        0.416
  YS02001757           JUNCTION        0.37          0.993        0.217
  YS02001759           JUNCTION        0.32          0.975        0.235
  YS02001762           JUNCTION        0.30          0.962        0.188
  YS02001765           JUNCTION        0.29          0.937        0.163
  YS02001767           JUNCTION        0.28          0.918        0.112
  YS02001770           JUNCTION        0.27          0.904        0.016
  YS02001774           JUNCTION        0.31          1.000        0.050
  YS02001779           JUNCTION        0.23          0.680        0.000
  YS02001783           JUNCTION        0.50          0.517        1.083
  YS02001784           JUNCTION        0.47          0.493        0.997
  YS02001786           JUNCTION        0.37          0.114        1.316
  YS02001882           JUNCTION        0.44          0.663        0.167
  YS02001884           JUNCTION        0.45          0.690        0.180
  YS02001887           JUNCTION        0.49          0.779        0.171
  YS02001890           JUNCTION        0.50          0.760        0.000
  YS02001895           JUNCTION        0.43          0.570        0.180
  YS02001898           JUNCTION        0.42          0.541        0.199
  YS02001901           JUNCTION        0.47          0.677        0.193
  YS02001904           JUNCTION        0.47          0.642        0.208
  YS02001907           JUNCTION        0.74          0.950        0.000
  YS02001910           JUNCTION        0.53          1.015        0.085
  YS02001915           JUNCTION        0.44          0.971        0.029
  YS02001918           JUNCTION        0.36          0.810        0.000
  YS02001920           JUNCTION        0.37          1.113        0.027
  YS02001923           JUNCTION        0.06          0.820        0.000
  YS02001926           JUNCTION        0.11          0.900        0.000
  YS02001929           JUNCTION        0.01          0.780        0.000
  YS02006553           JUNCTION        0.76          0.988        0.202
  YS02006556           JUNCTION        0.63          0.931        0.419
  YS02006558           JUNCTION        0.61          0.916        0.484
  YS02006561           JUNCTION        0.32          0.262        0.888
  YS02163301           JUNCTION        0.77          0.917        0.113
  YS02163601           JUNCTION        0.83          1.036        0.044
  YS02164001           JUNCTION        0.69          0.953        0.147
  
  
  *********************
  Node Flooding Summary
  *********************
  
  Flooding refers to all water that overflows a node, whether it ponds or not.
  --------------------------------------------------------------------------
                                                             Total   Maximum
                                 Maximum   Time of Max       Flood    Ponded
                        Hours       Rate    Occurrence      Volume     Depth
  Node                 Flooded       LPS   days hr:min    10^6 ltr    Meters
  --------------------------------------------------------------------------
  WS02006234              0.01      6.89      0  02:41       0.000     0.000
  WS02006235              0.01     15.31      0  03:05       0.000     0.000
  WS02006238              0.01     19.14      0  03:05       0.000     0.000
  WS02006239              0.01      1.75      0  02:30       0.000     0.000
  WS02006242              0.01      5.29      0  02:30       0.000     0.000
  WS02006243              0.01      6.08      0  02:12       0.000     0.000
  WS02006245              0.01      4.76      0  02:12       0.000     0.000
  WS02006247              0.01      0.34      0  02:38       0.000     0.000
  WS02006248              0.01     25.45      0  02:41       0.000     0.000
  WS02006249              0.45     31.96      0  02:30       0.016     0.000
  WS02006252              0.01    275.13      0  01:47       0.003     0.000
  WS02006256              0.82    311.35      0  01:37       0.331     0.000
  YS02001580              0.01     34.41      0  02:13       0.000     0.000
  YS02001583              0.01     61.17      0  02:13       0.000     0.000
  YS02001586              0.42    374.91      0  02:26       0.272     0.000
  YS02001590              0.01      3.88      0  02:13       0.000     0.000
  YS02001600              0.01      1.11      0  02:13       0.000     0.000
  YS02001601              0.58   1135.37      0  02:26       1.146     0.000
  YS02001602              0.39     61.89      0  02:25       0.081     0.000
  YS02001605              0.01      0.24      0  02:36       0.000     0.000
  YS02001610              0.35    656.84      0  02:26       0.494     0.000
  YS02001613              0.01      0.44      0  02:38       0.000     0.000
  YS02001625              0.31   1287.12      0  02:25       0.783     0.000
  YS02001629              0.09     81.07      0  02:22       0.015     0.000
  YS02001644              0.13    686.49      0  02:25       0.192     0.000
  YS02001779              0.12    342.73      0  02:25       0.076     0.000
  YS02001890              0.15    242.61      0  02:25       0.060     0.000
  YS02001907              0.31   1703.98      0  02:25       1.010     0.000
  YS02001918              0.01    105.35      0  02:18       0.001     0.000
  YS02001923              0.01    113.62      0  02:18       0.000     0.000
  YS02001926              0.01     41.57      0  02:18       0.000     0.000
  YS02001929              0.01    238.58      0  02:18       0.000     0.000
  
  
  **********************
  Storage Volume Summary
  **********************
  
  ------------------------------------------------------------------------------------------------
                         Average    Avg   Evap  Exfil     Maximum    Max    Time of Max    Maximum
                          Volume   Pcnt   Pcnt   Pcnt      Volume   Pcnt     Occurrence    Outflow
  Storage Unit           1000 m³   Full   Loss   Loss     1000 m³   Full    days hr:min        LPS
  ------------------------------------------------------------------------------------------------
  CC-storage               0.539    8.4    0.0    0.0       2.229   34.8       0  00:00    1783.53
  JK-storage               0.001    0.3    0.0    0.0       0.150   51.6       0  00:00    2300.00
  
  
  ***********************
  Outfall Loading Summary
  ***********************
  
  -----------------------------------------------------------
                         Flow       Avg       Max       Total
                         Freq      Flow      Flow      Volume
  Outfall Node           Pcnt       LPS       LPS    10^6 ltr
  -----------------------------------------------------------
  CC-1                  47.37    683.00    683.00       4.930
  CC-2                  47.37    683.00    683.00       4.930
  JK-1                  17.75    900.29   1000.00       2.222
  JK-2                  17.75    900.29   1000.00       2.222
  WSC                   99.94    216.48    517.21       4.148
  -----------------------------------------------------------
  System                46.04   3383.06   3883.21      18.453
  
  
  ********************
  Link Flow Summary
  ********************
  
  -----------------------------------------------------------------------------
                                 Maximum  Time of Max   Maximum    Max/    Max/
                                  |Flow|   Occurrence   |Veloc|    Full    Full
  Link                 Type          LPS  days hr:min     m/sec    Flow   Depth
  -----------------------------------------------------------------------------
  1                    CONDUIT    517.21     0  02:40      2.77    0.18    0.29
  WS02003060WS02003069 CONDUIT    515.56     0  02:35      1.61    0.20    0.33
  WS02003066WSF200     CONDUIT    498.98     0  02:34      2.80    0.08    0.21
  WS02003067WS02003066 CONDUIT    499.01     0  02:34      1.16    0.16    0.41
  WS02003069WS02003072 CONDUIT    515.68     0  02:39      1.34    0.25    0.37
  WS02003072WS02003073 CONDUIT    515.55     0  02:40      1.40    1.11    0.36
  WS02004401WS02004402 CONDUIT    501.11     0  02:31      1.22    0.60    0.83
  WS02004402WS02004403 CONDUIT    500.71     0  02:32      1.24    0.72    0.86
  WS02004403WS02004404 CONDUIT    500.60     0  02:32      1.24    0.36    0.90
  WS02004404WS02004405 CONDUIT    500.60     0  02:32      1.45    4.90    0.94
  WS02004405WS02004406 CONDUIT    500.44     0  02:32      1.46    0.99    0.93
  WS02004406WS02004407 CONDUIT    500.22     0  02:32      1.00    0.22    0.61
  WS02004407WS02004409 CONDUIT    499.96     0  02:32      1.59    0.18    0.46
  WS02004409WS02004410 CONDUIT    499.82     0  02:33      1.06    0.65    0.65
  WS02004410WS02004411 CONDUIT    499.53     0  02:33      1.12    0.68    0.66
  WS02004411WS02004412 CONDUIT    499.46     0  02:33      1.22    0.71    0.67
  WS02004412WS02004413 CONDUIT    499.33     0  02:34      1.22    0.33    0.76
  WS02004413WS02003067 CONDUIT    498.92     0  02:34      1.07    0.21    0.58
  WS02006109WS02006110 CONDUIT    506.27     0  02:41      1.01    0.97    0.99
  WS02006110WS02006113 CONDUIT    504.71     0  02:41      1.21    0.46    0.77
  WS02006111WS02006112 CONDUIT    505.03     0  02:31      1.95    0.24    0.67
  WS02006112WS02006115 CONDUIT    505.18     0  02:31      0.82    0.30    0.85
  WS02006113WS02006111 CONDUIT    520.14     0  02:30      2.40    0.62    0.45
  WS02006115WS02006116 CONDUIT    502.04     0  02:31      1.29    0.64    0.73
  WS02006116WS02004401 CONDUIT    501.39     0  02:31      1.21    0.69    0.81
  WS02006228WS02006109 CONDUIT    504.97     0  02:41      1.06    2.21    1.00
  WS02006229WS02006228 CONDUIT    504.92     0  02:41      1.12    1.67    1.00
  WS02006230WS02006229 CONDUIT    504.28     0  02:41      1.31   11.22    1.00
  WS02006231WS02006230 CONDUIT    534.24     0  02:41      1.40    8.10    0.98
  WS02006232WS02006231 CONDUIT    525.13     0  02:41      1.36    1.10    1.00
  WS02006234WS02006232 CONDUIT    522.79     0  02:41      1.39    1.06    1.00
  WS02006235WS02006234 CONDUIT    515.60     0  02:41      1.34    5.44    1.00
  WS02006238WS02006235 CONDUIT    419.32     0  02:52      1.45    0.94    1.00
  WS02006239WS02006238 CONDUIT    418.65     0  02:52      1.11    1.34    1.00
  WS02006240WS02006239 CONDUIT    417.48     0  02:52      1.24    1.31    1.00
  WS02006242WS02006240 CONDUIT    411.92     0  02:49      1.16    1.64    1.00
  WS02006243WS02006242 CONDUIT    412.05     0  02:49      1.38    0.88    1.00
  WS02006245WS02006243 CONDUIT    413.23     0  03:05      1.44    1.22    1.00
  WS02006247WS02006245 CONDUIT    417.72     0  02:10      1.43    3.31    1.00
  WS02006248WS02006247 CONDUIT    420.98     0  02:08      1.42    0.92    1.00
  WS02006249WS02006248 CONDUIT    427.90     0  02:08      1.36    2.34    1.00
  WS02006251WS02006249 CONDUIT    461.22     0  02:06      2.08    1.33    1.00
  WS02006252WS02006251 CONDUIT    405.39     0  01:50     27.64    1.49    1.00
  WS02006256WS02006235 CONDUIT    288.91     0  00:00      4.23    3.06    1.00
  WSF200WS02003060     CONDUIT    499.16     0  02:34      2.02    0.11    0.27
  YS02001580YS02001583 CONDUIT     76.60     0  02:12      0.54    0.30    1.00
  YS02001583YS02001586 CONDUIT    128.49     0  02:12      0.53    0.19    1.00
  YS02001586YS02001590 CONDUIT    319.80     0  02:38      1.26    0.56    1.00
  YS02001590YS02001593 CONDUIT    319.17     0  02:38      1.13    2.00    1.00
  YS02001593YS02001596 CONDUIT    317.92     0  02:27      1.77    0.50    1.00
  YS02001596YS02001600 CONDUIT    318.04     0  02:41      1.26    0.62    1.00
  YS02001600YS02001601 CONDUIT    318.04     0  02:41      1.12    0.55    1.00
  YS02001601YS02001602 CONDUIT    510.20     0  02:47      1.80    1.84    1.00
  YS02001602YS02001605 CONDUIT    510.10     0  02:47      1.80   10.79    1.00
  YS02001605YS02001607 CONDUIT    510.35     0  02:47      1.80    2.80    1.00
  YS02001607YS02001610 CONDUIT    511.05     0  02:47      0.65    0.49    1.00
  YS02001610YS02001613 CONDUIT    510.78     0  02:47      0.65    0.59    1.00
  YS02001613YS02001616 CONDUIT    511.15     0  02:47      0.65    0.44    1.00
  YS02001616YS02001619 CONDUIT    511.34     0  02:47      0.68    0.89    1.00
  YS02001619YS02001622 CONDUIT    972.86     0  02:40      1.24    1.43    1.00
  YS02001622YS02001625 CONDUIT    972.32     0  02:40      1.24    0.52    1.00
  YS02001625YS02001629 CONDUIT    972.42     0  02:40      1.24    0.46    1.00
  YS02001629YS02163301 CONDUIT    973.48     0  02:40      1.24    1.20    1.00
  YS02001633YS02163601 CONDUIT   1358.32     0  02:17      1.73    1.43    1.00
  YS02001641YS02001644 CONDUIT   1356.51     0  02:17      1.73    4.39    1.00
  YS02001644YS02001647 CONDUIT   1742.88     0  02:17      2.23    1.02    1.00
  YS02001647YS02001649 CONDUIT   1756.18     0  02:17      2.29    0.93    1.00
  YS02001649YS02001757 CONDUIT   1999.97     0  02:18      2.55    1.21    1.00
  YS02001652YS02001649 CONDUIT    839.59     0  02:25      1.07    0.42    1.00
  YS02001655YS02001652 CONDUIT    839.20     0  02:25      1.22    0.41    1.00
  YS02001658YS02001655 CONDUIT    838.72     0  02:25      1.81    0.36    1.00
  YS02001661YS02001658 CONDUIT    838.79     0  02:25      2.26    0.33    1.00
  YS02001664YS02001661 CONDUIT    877.94     0  02:24      2.24    0.28    0.74
  YS02001745YS02001748 CONDUIT    550.76     0  02:21      2.11    0.21    0.87
  YS02001748YS02001751 CONDUIT    520.00     0  02:24      1.63    0.26    1.00
  YS02001751YS02001754 CONDUIT    519.60     0  02:24      1.31    0.25    1.00
  YS02001754YS02001757 CONDUIT    519.84     0  02:24      0.66    0.21    1.00
  YS02001757CaochengTiaoxuchi CONDUIT   3392.19     0  02:25      6.92    1.47    0.85
  YS02001759YS02001757 CONDUIT   1373.46     0  02:24      1.75    0.98    1.00
  YS02001762YS02001759 CONDUIT    803.95     0  02:28      1.02    0.93    1.00
  YS02001765YS02001762 CONDUIT    803.32     0  02:28      1.02    0.75    1.00
  YS02001767YS02001765 CONDUIT    802.58     0  02:28      1.02    1.01    1.00
  YS02001770YS02001767 CONDUIT    801.92     0  02:28      1.02    3.18    1.00
  YS02001774YS02001770 CONDUIT    342.59     0  02:25      0.44    0.22    1.00
  YS02001779YS02001774 CONDUIT    342.84     0  02:25      0.44    0.17    1.00
  YS02001783YS02001784 CONDUIT   1162.70     0  02:24      2.31    1.60    1.00
  YS02001784YS02001785 CONDUIT   1163.64     0  02:24      2.31    2.71    1.00
  YS02001786YS02001788 CONDUIT   1163.68     0  02:24      2.48    2.24    0.89
  YS02001788YS02001790 CONDUIT   1173.72     0  02:23      2.73    0.87    0.84
  YS02001790YS02001791 CONDUIT   1290.46     0  02:26      3.43    1.40    0.70
  YS02001791YS02001793 CONDUIT   1244.53     0  02:24      6.36    0.53    0.43
  YS02001793JiankangQianchi CONDUIT   1283.24     0  02:19     24.25    0.10    0.50
  YS02001882YS02001884 CONDUIT     39.29     0  02:15      0.11    0.05    1.00
  YS02001884YS02001887 CONDUIT     43.99     0  02:14      0.08    0.06    1.00
  YS02001887YS02001890 CONDUIT    758.98     0  02:25      0.97    1.30    1.00
  YS02001890YS02001895 CONDUIT    516.67     0  02:28      0.66    0.24    1.00
  YS02001895YS02001898 CONDUIT    516.70     0  02:28      0.66    0.90    1.00
  YS02001898YS02001901 CONDUIT    516.81     0  02:27      0.66    0.33    1.00
  YS02001901YS02001904 CONDUIT    516.69     0  02:27      0.66    0.80    1.00
  YS02001904YS02001907 CONDUIT    516.83     0  02:27      0.66    0.18    1.00
  YS02001907YS02006553 CONDUIT    825.10     0  02:38      0.92    0.97    1.00
  YS02001910YS02001907 CONDUIT   1336.02     0  02:25      1.70    0.75    1.00
  YS02001915YS02001910 CONDUIT   1336.41     0  02:25      1.70    0.66    1.00
  YS02001918YS02001915 CONDUIT    454.13     0  02:25      0.58    0.25    1.00
  YS02001920YS02001918 CONDUIT    453.94     0  02:25      0.67    0.44    1.00
  YS02001923YS02001920 CONDUIT    450.78     0  02:25      0.69    0.20    1.00
  YS02001926YS02001923 CONDUIT    450.13     0  02:25      0.94    0.64    1.00
  YS02001929YS02001926 CONDUIT    449.91     0  02:25      1.08    0.21    1.00
  YS02006553YS02006556 CONDUIT    826.43     0  02:38      1.05    0.71    1.00
  YS02006556YS02006558 CONDUIT    828.45     0  02:38      1.05    0.65    1.00
  YS02006558YS02006561 CONDUIT   1162.69     0  02:24      4.11    2.57    1.00
  YS02006561YS02001783 CONDUIT   1162.66     0  02:24      2.31    0.60    1.00
  YS02163301YS02001633 CONDUIT    973.15     0  02:40      1.24    0.91    1.00
  YS02163601YS02164001 CONDUIT   1358.35     0  02:17      1.73    1.20    1.00
  YS02164001YS02001641 CONDUIT   1356.86     0  02:17      1.73    1.85    1.00
  CC-R1                PUMP       683.00     0  00:00              1.00
  CC-R2                PUMP       683.00     0  00:00              1.00
  CC-S1                PUMP       200.00     0  00:00              1.00
  CC-S2                PUMP       200.00     0  00:00              1.00
  JK-R1                PUMP      1000.00     0  00:00              1.00
  JK-R2                PUMP      1000.00     0  00:00              1.00
  JK-S                 PUMP       300.00     0  00:00              1.00
  
  
  ***************************
  Flow Classification Summary
  ***************************
  
  -------------------------------------------------------------------------------------
                      Adjusted    ---------- Fraction of Time in Flow Class ---------- 
                       /Actual         Up    Down  Sub   Sup   Up    Down  Norm  Inlet 
  Conduit               Length    Dry  Dry   Dry   Crit  Crit  Crit  Crit  Ltd   Ctrl  
  -------------------------------------------------------------------------------------
  1                       1.00   0.00  0.00  0.00  0.00  1.00  0.00  0.00  0.28  0.00
  WS02003060WS02003069    1.00   0.00  0.00  0.00  0.98  0.02  0.00  0.00  0.76  0.00
  WS02003066WSF200        1.00   0.05  0.00  0.00  0.00  0.95  0.00  0.00  0.93  0.00
  WS02003067WS02003066    1.00   0.05  0.00  0.00  0.95  0.00  0.00  0.00  0.00  0.00
  WS02003069WS02003072    1.00   0.00  0.00  0.00  0.99  0.01  0.00  0.00  0.81  0.00
  WS02003072WS02003073    1.00   0.00  0.00  0.00  0.00  0.00  0.00  1.00  0.00  0.00
  WS02004401WS02004402    1.00   0.02  0.00  0.00  0.98  0.00  0.00  0.00  0.00  0.00
  WS02004402WS02004403    1.00   0.02  0.00  0.00  0.98  0.00  0.00  0.00  0.00  0.00
  WS02004403WS02004404    1.00   0.00  0.03  0.00  0.97  0.00  0.00  0.00  0.00  0.00
  WS02004404WS02004405    1.00   0.00  0.00  0.00  1.00  0.00  0.00  0.00  0.00  0.00
  WS02004405WS02004406    1.00   0.00  0.00  0.00  1.00  0.00  0.00  0.00  0.00  0.00
  WS02004406WS02004407    1.00   0.00  0.03  0.00  0.97  0.00  0.00  0.00  0.00  0.00
  WS02004407WS02004409    1.00   0.03  0.00  0.00  0.96  0.01  0.00  0.00  0.96  0.00
  WS02004409WS02004410    1.00   0.03  0.00  0.00  0.96  0.00  0.00  0.00  0.00  0.00
  WS02004410WS02004411    1.00   0.04  0.00  0.00  0.96  0.00  0.00  0.00  0.00  0.00
  WS02004411WS02004412    1.00   0.04  0.00  0.00  0.96  0.00  0.00  0.00  0.00  0.00
  WS02004412WS02004413    1.00   0.04  0.00  0.00  0.96  0.00  0.00  0.00  0.00  0.00
  WS02004413WS02003067    1.00   0.04  0.01  0.00  0.00  0.00  0.95  0.00  0.00  0.00
  WS02006109WS02006110    1.00   0.00  0.01  0.00  0.98  0.00  0.01  0.00  0.00  0.00
  WS02006110WS02006113    1.00   0.01  0.01  0.00  0.98  0.00  0.00  0.00  0.00  0.00
  WS02006111WS02006112    1.00   0.02  0.00  0.00  0.98  0.00  0.00  0.00  0.98  0.00
  WS02006112WS02006115    1.00   0.02  0.00  0.00  0.97  0.00  0.00  0.00  0.00  0.00
  WS02006113WS02006111    1.00   0.02  0.00  0.00  0.00  0.98  0.00  0.00  0.10  0.00
  WS02006115WS02006116    1.00   0.02  0.00  0.00  0.97  0.00  0.00  0.01  0.00  0.00
  WS02006116WS02004401    1.00   0.02  0.00  0.00  0.98  0.00  0.00  0.00  0.00  0.00
  WS02006228WS02006109    1.00   0.00  0.00  0.00  1.00  0.00  0.00  0.00  0.00  0.00
  WS02006229WS02006228    1.00   0.00  0.00  0.00  0.99  0.00  0.00  0.01  0.00  0.00
  WS02006230WS02006229    1.00   0.00  0.00  0.00  0.99  0.00  0.00  0.01  0.02  0.00
  WS02006231WS02006230    1.00   0.00  0.00  0.00  0.20  0.00  0.79  0.00  0.00  0.00
  WS02006232WS02006231    1.00   0.00  0.00  0.00  0.99  0.00  0.00  0.00  0.00  0.00
  WS02006234WS02006232    1.00   0.00  0.00  0.00  1.00  0.00  0.00  0.00  0.02  0.00
  WS02006235WS02006234    1.00   0.00  0.00  0.00  0.91  0.00  0.09  0.00  0.00  0.00
  WS02006238WS02006235    1.00   0.00  0.00  0.00  1.00  0.00  0.00  0.00  0.00  0.00
  WS02006239WS02006238    1.00   0.00  0.00  0.00  1.00  0.00  0.00  0.00  0.07  0.00
  WS02006240WS02006239    1.00   0.00  0.00  0.00  0.90  0.00  0.00  0.09  0.32  0.00
  WS02006242WS02006240    1.00   0.00  0.00  0.00  0.95  0.00  0.05  0.00  0.00  0.00
  WS02006243WS02006242    1.00   0.00  0.00  0.00  0.98  0.00  0.00  0.02  0.64  0.00
  WS02006245WS02006243    1.00   0.00  0.00  0.00  0.70  0.00  0.00  0.30  0.01  0.00
  WS02006247WS02006245    1.00   0.00  0.00  0.00  0.96  0.00  0.00  0.04  0.00  0.00
  WS02006248WS02006247    1.00   0.00  0.00  0.00  0.98  0.00  0.00  0.02  0.43  0.00
  WS02006249WS02006248    1.00   0.00  0.00  0.00  0.41  0.00  0.59  0.00  0.00  0.00
  WS02006251WS02006249    1.00   0.00  0.00  0.00  0.99  0.01  0.00  0.00  0.63  0.00
  WS02006252WS02006251    1.00   0.16  0.51  0.00  0.07  0.00  0.25  0.00  0.00  0.00
  WS02006256WS02006235    1.00   0.00  0.00  0.00  0.95  0.05  0.00  0.00  0.01  0.00
  WSF200WS02003060        1.00   0.00  0.05  0.00  0.40  0.55  0.00  0.00  0.71  0.00
  YS02001580YS02001583    1.00   0.27  0.54  0.00  0.18  0.00  0.00  0.00  0.63  0.00
  YS02001583YS02001586    1.00   0.40  0.36  0.00  0.24  0.00  0.00  0.00  0.64  0.00
  YS02001586YS02001590    1.00   0.13  0.00  0.00  0.45  0.04  0.00  0.38  0.39  0.00
  YS02001590YS02001593    1.00   0.13  0.01  0.00  0.11  0.00  0.76  0.00  0.00  0.00
  YS02001593YS02001596    1.00   0.14  0.00  0.00  0.13  0.01  0.00  0.73  0.02  0.00
  YS02001596YS02001600    1.00   0.14  0.00  0.00  0.20  0.02  0.00  0.65  0.05  0.00
  YS02001600YS02001601    1.00   0.13  0.01  0.00  0.86  0.00  0.00  0.00  0.60  0.00
  YS02001601YS02001602    1.00   0.13  0.01  0.00  0.86  0.00  0.00  0.00  0.00  0.00
  YS02001602YS02001605    1.00   0.14  0.00  0.00  0.86  0.00  0.00  0.00  0.00  0.00
  YS02001605YS02001607    1.00   0.14  0.00  0.00  0.86  0.00  0.00  0.00  0.00  0.00
  YS02001607YS02001610    1.00   0.13  0.01  0.00  0.86  0.00  0.00  0.00  0.02  0.00
  YS02001610YS02001613    1.00   0.13  0.00  0.00  0.87  0.00  0.00  0.00  0.00  0.00
  YS02001613YS02001616    1.00   0.13  0.00  0.00  0.87  0.00  0.00  0.00  0.00  0.00
  YS02001616YS02001619    1.00   0.13  0.00  0.00  0.87  0.00  0.00  0.00  0.00  0.00
  YS02001619YS02001622    1.00   0.13  0.00  0.00  0.87  0.00  0.00  0.00  0.27  0.00
  YS02001622YS02001625    1.00   0.13  0.00  0.00  0.87  0.00  0.00  0.00  0.05  0.00
  YS02001625YS02001629    1.00   0.13  0.05  0.00  0.15  0.00  0.67  0.00  0.00  0.00
  YS02001629YS02163301    1.00   0.16  0.01  0.00  0.83  0.00  0.00  0.00  0.00  0.00
  YS02001633YS02163601    1.00   0.00  0.01  0.00  0.99  0.00  0.00  0.00  0.15  0.00
  YS02001641YS02001644    1.00   0.00  0.01  0.00  0.99  0.00  0.00  0.00  0.00  0.00
  YS02001644YS02001647    1.00   0.00  0.18  0.00  0.82  0.00  0.00  0.00  0.00  0.00
  YS02001647YS02001649    1.00   0.00  0.18  0.00  0.51  0.32  0.00  0.00  0.55  0.00
  YS02001649YS02001757    1.00   0.00  0.00  0.00  0.85  0.15  0.00  0.00  0.73  0.00
  YS02001652YS02001649    1.00   0.00  0.00  0.00  0.96  0.04  0.00  0.00  0.74  0.00
  YS02001655YS02001652    1.00   0.00  0.00  0.00  0.17  0.02  0.00  0.81  0.09  0.00
  YS02001658YS02001655    1.00   0.00  0.14  0.00  0.59  0.27  0.00  0.00  0.75  0.00
  YS02001661YS02001658    1.00   0.14  0.00  0.00  0.43  0.43  0.00  0.00  0.73  0.00
  YS02001664YS02001661    1.00   0.13  0.00  0.00  0.74  0.13  0.00  0.00  0.86  0.00
  YS02001745YS02001748    1.00   0.00  0.00  0.00  0.03  0.01  0.00  0.96  0.01  0.00
  YS02001748YS02001751    1.00   0.00  0.00  0.00  0.75  0.25  0.00  0.00  0.79  0.00
  YS02001751YS02001754    1.00   0.00  0.00  0.00  0.11  0.01  0.00  0.88  0.05  0.00
  YS02001754YS02001757    1.00   0.00  0.00  0.00  1.00  0.00  0.00  0.00  0.85  0.00
  YS02001757CaochengTiaoxuchi    1.00   0.00  0.00  0.00  0.04  0.96  0.00  0.00  0.09  0.00
  YS02001759YS02001757    1.00   0.00  0.00  0.00  1.00  0.00  0.00  0.00  0.64  0.00
  YS02001762YS02001759    1.00   0.00  0.00  0.00  1.00  0.00  0.00  0.00  0.06  0.00
  YS02001765YS02001762    1.00   0.00  0.00  0.00  1.00  0.00  0.00  0.00  0.71  0.00
  YS02001767YS02001765    1.00   0.00  0.00  0.00  1.00  0.00  0.00  0.00  0.00  0.00
  YS02001770YS02001767    1.00   0.00  0.00  0.00  1.00  0.00  0.00  0.00  0.00  0.00
  YS02001774YS02001770    1.00   0.00  0.13  0.00  0.71  0.00  0.15  0.00  0.03  0.00
  YS02001779YS02001774    1.00   0.00  0.00  0.00  1.00  0.00  0.00  0.00  0.79  0.00
  YS02001783YS02001784    1.00   0.00  0.19  0.00  0.81  0.00  0.00  0.00  0.54  0.00
  YS02001784YS02001785    1.00   0.00  0.00  0.00  1.00  0.00  0.00  0.00  0.17  0.00
  YS02001786YS02001788    1.00   0.00  0.00  0.00  0.79  0.21  0.00  0.00  0.00  0.00
  YS02001788YS02001790    1.00   0.00  0.00  0.00  0.21  0.79  0.00  0.00  0.80  0.00
  YS02001790YS02001791    1.00   0.00  0.00  0.00  0.01  0.99  0.00  0.00  0.16  0.00
  YS02001791YS02001793    1.00   0.00  0.00  0.00  0.00  1.00  0.00  0.00  0.01  0.00
  YS02001793JiankangQianchi    1.00   0.00  0.00  0.00  0.00  1.00  0.00  0.00  0.13  0.00
  YS02001882YS02001884    1.00   0.15  0.01  0.00  0.84  0.00  0.00  0.00  0.00  0.00
  YS02001884YS02001887    1.00   0.06  0.05  0.00  0.89  0.00  0.00  0.00  0.00  0.00
  YS02001887YS02001890    1.00   0.00  0.00  0.00  0.97  0.00  0.03  0.00  0.00  0.00
  YS02001890YS02001895    1.00   0.00  0.17  0.00  0.83  0.00  0.00  0.00  0.00  0.00
  YS02001895YS02001898    1.00   0.17  0.00  0.00  0.81  0.00  0.02  0.00  0.00  0.00
  YS02001898YS02001901    1.00   0.17  0.00  0.00  0.83  0.00  0.00  0.00  0.01  0.00
  YS02001901YS02001904    1.00   0.17  0.00  0.00  0.83  0.00  0.00  0.00  0.00  0.00
  YS02001904YS02001907    1.00   0.00  0.17  0.00  0.83  0.00  0.00  0.00  0.00  0.00
  YS02001907YS02006553    1.00   0.00  0.02  0.00  0.98  0.00  0.00  0.00  0.00  0.00
  YS02001910YS02001907    1.00   0.00  0.00  0.00  0.97  0.00  0.00  0.03  0.12  0.00
  YS02001915YS02001910    1.00   0.00  0.00  0.00  0.96  0.04  0.00  0.00  0.16  0.00
  YS02001918YS02001915    1.00   0.00  0.01  0.00  0.98  0.02  0.00  0.00  0.75  0.00
  YS02001920YS02001918    1.00   0.00  0.01  0.00  0.99  0.00  0.00  0.00  0.00  0.00
  YS02001923YS02001920    1.00   0.00  0.00  0.00  1.00  0.00  0.00  0.00  0.93  0.00
  YS02001926YS02001923    1.00   0.00  0.07  0.00  0.06  0.00  0.87  0.00  0.00  0.00
  YS02001929YS02001926    1.00   0.00  0.13  0.00  0.87  0.00  0.00  0.00  0.82  0.00
  YS02006553YS02006556    1.00   0.01  0.00  0.00  0.99  0.00  0.00  0.00  0.03  0.00
  YS02006556YS02006558    1.00   0.00  0.00  0.00  1.00  0.00  0.00  0.00  0.00  0.00
  YS02006558YS02006561    1.00   0.18  0.00  0.00  0.05  0.76  0.00  0.00  0.19  0.00
  YS02006561YS02001783    1.00   0.18  0.00  0.00  0.09  0.73  0.00  0.00  0.68  0.00
  YS02163301YS02001633    1.00   0.00  0.16  0.00  0.84  0.00  0.00  0.00  0.00  0.00
  YS02163601YS02164001    1.00   0.00  0.08  0.00  0.92  0.00  0.00  0.00  0.00  0.00
  YS02164001YS02001641    1.00   0.01  0.08  0.00  0.92  0.00  0.00  0.00  0.06  0.00
  
  
  *************************
  Conduit Surcharge Summary
  *************************
  
  ----------------------------------------------------------------------------
                                                           Hours        Hours 
                         --------- Hours Full --------   Above Full   Capacity
  Conduit                Both Ends  Upstream  Dnstream   Normal Flow   Limited
  ----------------------------------------------------------------------------
  WS02003072WS02003073        0.01      0.01      0.01      0.65         0.01
  WS02004404WS02004405        0.01      0.01      0.01      2.42         0.01
  WS02006109WS02006110        0.01      0.01      1.49      0.01         0.01
  WS02006110WS02006113        0.01      0.01      1.45      0.01         0.01
  WS02006111WS02006112        0.01      0.01      1.61      0.01         0.01
  WS02006112WS02006115        0.01      0.01      0.37      0.01         0.01
  WS02006228WS02006109        1.40      1.50      1.40      1.94         1.40
  WS02006229WS02006228        1.39      1.42      1.39      1.69         1.38
  WS02006230WS02006229        1.58      1.64      1.58      3.20         1.58
  WS02006231WS02006230        0.01      0.01      0.49      2.56         0.01
  WS02006232WS02006231        0.41      0.41      1.51      0.42         0.01
  WS02006234WS02006232        1.35      1.35      1.51      0.02         0.29
  WS02006235WS02006234        1.07      1.07      1.40      2.42         0.22
  WS02006238WS02006235        1.42      1.42      1.52      0.01         0.01
  WS02006239WS02006238        1.45      1.50      1.45      1.62         1.10
  WS02006240WS02006239        1.41      1.43      1.41      1.61         1.13
  WS02006242WS02006240        1.42      1.42      1.57      1.73         0.01
  WS02006243WS02006242        1.44      1.44      1.52      0.01         0.04
  WS02006245WS02006243        1.43      1.44      1.43      1.64         1.27
  WS02006247WS02006245        1.43      1.47      1.43      2.04         1.42
  WS02006248WS02006247        1.43      1.43      1.45      0.01         0.04
  WS02006249WS02006248        1.42      1.42      1.44      1.88         0.01
  WS02006251WS02006249        1.44      1.46      1.44      1.72         1.38
  WS02006252WS02006251        1.99      1.99      2.00      2.01         0.01
  WS02006256WS02006235        1.60      2.46      5.21      0.76         0.13
  YS02001580YS02001583        0.55      0.56      0.58      0.01         0.01
  YS02001583YS02001586        0.56      0.56      0.65      0.01         0.01
  YS02001586YS02001590        0.66      0.66      0.73      0.01         0.01
  YS02001590YS02001593        0.73      0.73      0.75      0.77         0.01
  YS02001593YS02001596        0.74      0.74      0.85      0.01         0.01
  YS02001596YS02001600        0.90      0.90      1.01      0.01         0.01
  YS02001600YS02001601        1.07      1.07      1.36      0.01         0.01
  YS02001601YS02001602        1.24      1.24      1.41      1.04         0.01
  YS02001602YS02001605        1.18      1.18      1.24      2.32         0.01
  YS02001605YS02001607        1.14      1.18      1.14      1.32         1.14
  YS02001607YS02001610        0.66      0.66      0.69      0.01         0.01
  YS02001610YS02001613        0.66      0.66      0.69      0.01         0.01
  YS02001613YS02001616        0.61      0.61      0.66      0.01         0.01
  YS02001616YS02001619        0.60      0.60      0.61      0.01         0.02
  YS02001619YS02001622        0.59      0.60      0.59      0.78         0.57
  YS02001622YS02001625        0.59      0.59      0.79      0.01         0.01
  YS02001625YS02001629        0.49      0.49      0.79      0.01         0.01
  YS02001629YS02163301        0.77      0.77      0.77      0.36         0.35
  YS02001633YS02163601        0.80      0.80      0.83      0.47         0.48
  YS02001641YS02001644        0.60      0.67      0.60      1.45         0.59
  YS02001644YS02001647        0.35      0.35      0.60      0.03         0.01
  YS02001647YS02001649        0.35      0.35      0.38      0.01         0.01
  YS02001649YS02001757        0.37      0.38      0.37      0.39         0.26
  YS02001652YS02001649        0.29      0.29      0.38      0.01         0.01
  YS02001655YS02001652        0.22      0.22      0.28      0.01         0.01
  YS02001658YS02001655        0.15      0.15      0.22      0.01         0.01
  YS02001661YS02001658        0.01      0.01      0.15      0.01         0.01
  YS02001664YS02001661        0.01      0.01      0.04      0.01         0.01
  YS02001745YS02001748        0.01      0.01      0.08      0.01         0.01
  YS02001748YS02001751        0.12      0.12      0.16      0.01         0.01
  YS02001751YS02001754        0.16      0.16      0.21      0.01         0.01
  YS02001754YS02001757        0.23      0.23      0.37      0.01         0.01
  YS02001757CaochengTiaoxuchi        0.01      0.37      0.01      0.48         0.01
  YS02001759YS02001757        0.32      0.32      0.37      0.01         0.02
  YS02001762YS02001759        0.30      0.30      0.32      0.01         0.02
  YS02001765YS02001762        0.29      0.29      0.30      0.01         0.01
  YS02001767YS02001765        0.28      0.28      0.29      0.01         0.05
  YS02001770YS02001767        0.28      0.28      0.28      0.55         0.28
  YS02001774YS02001770        0.27      0.27      0.31      0.01         0.01
  YS02001779YS02001774        0.23      0.23      0.31      0.01         0.01
  YS02001783YS02001784        0.47      0.50      0.47      0.66         0.47
  YS02001784YS02001785        0.37      0.47      0.37      0.91         0.37
  YS02001786YS02001788        0.01      0.37      0.01      0.78         0.01
  YS02001790YS02001791        0.01      0.01      0.01      0.46         0.01
  YS02001882YS02001884        0.44      0.44      0.45      0.01         0.01
  YS02001884YS02001887        0.48      0.48      0.49      0.01         0.01
  YS02001887YS02001890        0.50      0.50      0.52      0.09         0.01
  YS02001890YS02001895        0.43      0.43      0.53      0.01         0.01
  YS02001895YS02001898        0.42      0.42      0.43      0.01         0.01
  YS02001898YS02001901        0.44      0.44      0.47      0.01         0.01
  YS02001901YS02001904        0.47      0.47      0.47      0.01         0.01
  YS02001904YS02001907        0.46      0.46      0.77      0.01         0.01
  YS02001907YS02006553        0.91      0.91      0.99      0.01         0.01
  YS02001910YS02001907        0.53      0.53      0.74      0.01         0.01
  YS02001915YS02001910        0.44      0.44      0.53      0.01         0.01
  YS02001918YS02001915        0.36      0.36      0.44      0.01         0.01
  YS02001920YS02001918        0.36      0.36      0.37      0.01         0.01
  YS02001923YS02001920        0.32      0.32      0.37      0.01         0.01
  YS02001926YS02001923        0.06      0.06      0.11      0.01         0.01
  YS02001929YS02001926        0.01      0.01      0.11      0.01         0.01
  YS02006553YS02006556        0.63      0.63      0.76      0.01         0.01
  YS02006556YS02006558        0.69      0.69      0.78      0.01         0.01
  YS02006558YS02006561        0.39      0.61      0.39      0.86         0.39
  YS02006561YS02001783        0.32      0.32      0.50      0.01         0.01
  YS02163301YS02001633        0.77      0.77      0.82      0.01         0.02
  YS02163601YS02164001        0.69      0.69      0.83      0.30         0.01
  YS02164001YS02001641        0.67      0.69      0.67      0.73         0.52
  
  
  ***************
  Pumping Summary
  ***************
  
  ---------------------------------------------------------------------------------------------------------
                                                  Min       Avg       Max     Total     Power    % Time Off
                        Percent   Number of      Flow      Flow      Flow    Volume     Usage    Pump Curve
  Pump                 Utilized   Start-Ups       LPS       LPS       LPS  10^6 ltr     Kw-hr    Low   High
  ---------------------------------------------------------------------------------------------------------
  CC-R1                   25.33          42      0.00    683.00    683.00     4.930     78.82    0.0  100.0
  CC-R2                   25.33          42      0.00    683.00    683.00     4.930     78.82    0.0  100.0
  CC-S1                   25.33          42      0.00    200.00    200.00     1.444     11.71    0.0   44.6
  CC-S2                   25.33          42      0.00    200.00    200.00     1.444     11.71    0.0   44.6
  JK-R1                   10.38        1179      0.00    900.29   1000.00     2.259      5.27    0.0    0.0
  JK-R2                   10.38        1179      0.00    900.29   1000.00     2.259      5.27    0.0    0.0
  JK-S                    10.38        1179      0.00    294.82    300.00     0.837     19.23    0.0    0.0
  

  Analysis begun on:  Wed Feb 26 11:08:53 2025
  Analysis ended on:  Wed Feb 26 11:08:55 2025
  Total elapsed time: 00:00:02