
  EPA STORM WATER MANAGEMENT MODEL - VERSION 5.2 (Build 5.2.4)
  PYSWMM TOOLKIT API - VERSION v1.0 (2023-11-27)
  ------------------------------------------------------------

  WARNING 04: minimum elevation drop used for Conduit WS02004404WS02004405
  WARNING 03: negative offset ignored for Link YS02001904YS02001907
  
  ****************
  Analysis Options
  ****************
  Flow Units ............... LPS
  Process Models:
    Rainfall/Runoff ........ YES
    RDII ................... NO
    Snowmelt ............... NO
    Groundwater ............ NO
    Flow Routing ........... YES
    Ponding Allowed ........ NO
    Water Quality .......... NO
  Infiltration Method ...... HORTON
  Flow Routing Method ...... DYNWAVE
  Surcharge Method ......... EXTRAN
  Starting Date ............ 08/28/2015 08:00:00
  Ending Date .............. 08/28/2015 16:00:00
  Antecedent Dry Days ...... 8.0
  Report Time Step ......... 00:01:00
  Wet Time Step ............ 00:01:00
  Dry Time Step ............ 00:01:00
  Routing Time Step ........ 30.00 sec
  Variable Time Step ....... YES
  Maximum Trials ........... 8
  Number of Threads ........ 4
  Head Tolerance ........... 0.001500 m
  
  
  **************************        Volume         Depth
  Runoff Quantity Continuity     hectare-m            mm
  **************************     ---------       -------
  Total Precipitation ......         1.357        40.899
  Evaporation Loss .........         0.000         0.000
  Infiltration Loss ........         0.095         2.854
  Surface Runoff ...........         1.229        37.058
  Final Storage ............         0.033         0.996
  Continuity Error (%) .....        -0.021
  
  
  **************************        Volume        Volume
  Flow Routing Continuity        hectare-m      10^6 ltr
  **************************     ---------     ---------
  Dry Weather Inflow .......         0.025         0.248
  Wet Weather Inflow .......         1.229        12.289
  Groundwater Inflow .......         0.000         0.000
  RDII Inflow ..............         0.000         0.000
  External Inflow ..........         0.083         0.825
  External Outflow .........         1.498        14.978
  Flooding Loss ............         0.177         1.772
  Evaporation Loss .........         0.000         0.000
  Exfiltration Loss ........         0.000         0.000
  Initial Stored Volume ....         0.243         2.431
  Final Stored Volume ......         0.039         0.389
  Continuity Error (%) .....        -8.528
  
  
  *************************
  Highest Continuity Errors
  *************************
  Node JK-storage (-36.80%)
  Node WS02006256 (-24.92%)
  Node YS02001884 (5.27%)
  Node YS02001583 (-4.44%)
  Node YS02001774 (1.99%)
  
  
  ***************************
  Time-Step Critical Elements
  ***************************
  Link YS02001793JiankangQianchi (36.87%)
  Link WS02006238WS02006235 (34.27%)
  Link WS02004404WS02004405 (8.78%)
  Link WS02003066WSF200 (4.51%)
  Link WS02006235WS02006234 (1.95%)
  
  
  ********************************
  Highest Flow Instability Indexes
  ********************************
  Link WS02006256WS02006235 (55)
  Link WS02006235WS02006234 (37)
  Link WS02006238WS02006235 (33)
  Link WS02006113WS02006111 (33)
  Link WS02006252WS02006251 (32)
  
  
  *********************************
  Most Frequent Nonconverging Nodes
  *********************************
  Node CC-1 (42.12%)
  Node CC-2 (42.12%)
  Node JK-1 (42.12%)
  Node JK-2 (42.12%)
  Node WSC (42.12%)
  
  
  *************************
  Routing Time Step Summary
  *************************
  Minimum Time Step           :     0.01 sec
  Average Time Step           :     2.94 sec
  Maximum Time Step           :     6.43 sec
  % of Time in Steady State   :     0.00
  Average Iterations per Step :     5.21
  % of Steps Not Converging   :    42.12
  Time Step Frequencies       :
     30.000 - 13.228 sec      :     0.00 %
     13.228 -  5.833 sec      :     8.87 %
      5.833 -  2.572 sec      :    41.71 %
      2.572 -  1.134 sec      :    34.24 %
      1.134 -  0.500 sec      :    15.18 %
  
  
  ***************************
  Subcatchment Runoff Summary
  ***************************
  
  ------------------------------------------------------------------------------------------------------------------------------
                            Total      Total      Total      Total     Imperv       Perv      Total       Total     Peak  Runoff
                           Precip      Runon       Evap      Infil     Runoff     Runoff     Runoff      Runoff   Runoff   Coeff
  Subcatchment                 mm         mm         mm         mm         mm         mm         mm    10^6 ltr      LPS
  ------------------------------------------------------------------------------------------------------------------------------
  sub60                     40.90       0.00       0.00       1.71      34.78       3.20      37.99        0.50   363.78   0.929
  sub61                     40.90       0.00       0.00       2.48      32.81       4.47      37.28        0.68   504.18   0.912
  sub62                     40.90       0.00       0.00       1.14      36.33       2.14      38.47        1.05   702.71   0.941
  sub63                     40.90       0.00       0.00       4.63      28.06       7.23      35.30        0.80   559.10   0.863
  sub64                     40.90       0.00       0.00       2.33      33.55       3.80      37.35        0.90   565.50   0.913
  sub65                     40.90       0.00       0.00       2.02      34.32       3.30      37.62        1.04   632.20   0.920
  sub66                     40.90       0.00       0.00       5.70      27.96       6.16      34.11        1.59   809.59   0.834
  sub67                     40.90       0.00       0.00       1.09      36.38       2.18      38.56        0.72   550.28   0.943
  sub68                     40.90       0.00       0.00       2.06      33.98       3.67      37.65        1.04   722.67   0.921
  sub69                     40.90       0.00       0.00       1.83      34.65       4.31      38.95        1.44   842.47   0.952
  sub70                     40.90       0.00       0.00       6.06      26.82       7.85      34.67        1.00   453.97   0.848
  sub71                     40.90       0.00       0.00       1.17      36.29       2.10      38.39        1.00   613.98   0.939
  sub72                     40.90       0.00       0.00       1.05      36.63       1.82      38.44        0.53   295.86   0.940
  
  
  ******************
  Node Depth Summary
  ******************
  
  ---------------------------------------------------------------------------------
                                 Average  Maximum  Maximum  Time of Max    Reported
                                   Depth    Depth      HGL   Occurrence   Max Depth
  Node                 Type       Meters   Meters   Meters  days hr:min      Meters
  ---------------------------------------------------------------------------------
  WS02003060           JUNCTION     0.19     0.37     5.30     0  02:41        0.37
  WS02003066           JUNCTION     0.16     0.29     5.84     0  02:40        0.29
  WS02003067           JUNCTION     0.44     0.68     6.00     0  02:40        0.68
  WS02003069           JUNCTION     0.21     0.41     5.00     0  02:42        0.41
  WS02003072           JUNCTION     0.27     0.48     4.85     0  02:43        0.48
  WS02003073           JUNCTION     0.15     0.29     4.35     0  02:43        0.29
  WS02004401           JUNCTION     0.52     0.82     6.82     0  02:33        0.82
  WS02004402           JUNCTION     0.55     0.85     6.81     0  02:33        0.85
  WS02004403           JUNCTION     0.58     0.86     6.79     0  02:33        0.86
  WS02004404           JUNCTION     0.65     0.94     6.79     0  02:33        0.94
  WS02004405           JUNCTION     0.65     0.93     6.78     0  02:33        0.93
  WS02004406           JUNCTION     0.66     0.93     6.76     0  02:33        0.93
  WS02004407           JUNCTION     0.14     0.28     6.60     0  02:34        0.28
  WS02004409           JUNCTION     0.32     0.64     6.41     0  02:40        0.64
  WS02004410           JUNCTION     0.35     0.65     6.37     0  02:39        0.65
  WS02004411           JUNCTION     0.37     0.66     6.34     0  02:39        0.66
  WS02004412           JUNCTION     0.39     0.67     6.31     0  02:41        0.67
  WS02004413           JUNCTION     0.55     0.84     6.31     0  02:40        0.84
  WS02006109           JUNCTION     0.59     0.94     7.55     0  02:25        0.93
  WS02006110           JUNCTION     0.60     0.90     7.48     0  02:25        0.90
  WS02006111           JUNCTION     0.15     0.28     6.98     0  02:26        0.28
  WS02006112           JUNCTION     0.68     1.02     6.90     0  02:37        1.01
  WS02006113           JUNCTION     0.23     0.44     7.33     0  02:26        0.44
  WS02006115           JUNCTION     0.41     0.72     6.86     0  02:32        0.72
  WS02006116           JUNCTION     0.49     0.80     6.84     0  02:32        0.80
  WS02006228           JUNCTION     0.58     0.97     7.62     0  02:25        0.96
  WS02006229           JUNCTION     0.55     0.96     7.66     0  02:25        0.95
  WS02006230           JUNCTION     0.54     1.03     7.78     0  02:25        1.02
  WS02006231           JUNCTION     0.36     0.93     8.06     0  02:23        0.79
  WS02006232           JUNCTION     0.48     1.20     8.24     0  02:36        1.20
  WS02006234           JUNCTION     0.40     1.45     8.61     0  02:36        1.45
  WS02006235           JUNCTION     0.44     1.58     8.75     0  02:36        1.58
  WS02006238           JUNCTION     0.46     1.67     8.81     0  02:36        1.67
  WS02006239           JUNCTION     0.43     1.60     8.81     0  02:36        1.60
  WS02006240           JUNCTION     0.38     1.47     8.77     0  02:36        1.47
  WS02006242           JUNCTION     0.45     1.55     8.82     0  02:57        1.55
  WS02006243           JUNCTION     0.38     1.48     8.90     0  02:57        1.48
  WS02006245           JUNCTION     0.39     1.56     9.04     0  02:57        1.56
  WS02006247           JUNCTION     0.40     1.47     8.97     0  02:42        1.47
  WS02006248           JUNCTION     0.37     1.10     8.69     0  02:22        1.10
  WS02006249           JUNCTION     0.40     1.09     8.69     0  02:21        1.09
  WS02006251           JUNCTION     0.40     1.14     8.81     0  02:21        1.13
  WS02006252           JUNCTION     0.26     1.50     9.74     0  00:00        0.71
  WS02006256           JUNCTION     0.86     2.35     9.28     0  00:00        2.35
  WSF200               JUNCTION     0.13     0.28     5.51     0  02:40        0.28
  YS02001580           JUNCTION     0.10     1.05     9.59     0  02:19        0.77
  YS02001583           JUNCTION     0.13     1.14     9.64     0  02:19        0.82
  YS02001586           JUNCTION     0.22     1.13     9.30     0  02:19        1.13
  YS02001590           JUNCTION     0.32     1.38     9.25     0  02:42        1.38
  YS02001593           JUNCTION     0.26     1.40     9.26     0  02:42        1.29
  YS02001596           JUNCTION     0.35     1.75     9.17     0  02:42        1.65
  YS02001600           JUNCTION     0.44     1.87     9.00     0  02:42        1.86
  YS02001601           JUNCTION     0.62     2.06     8.90     0  02:19        2.06
  YS02001602           JUNCTION     0.53     1.87     8.77     0  02:19        1.87
  YS02001605           JUNCTION     0.48     1.78     8.68     0  02:19        1.78
  YS02001607           JUNCTION     0.45     1.66     8.51     0  02:19        1.65
  YS02001610           JUNCTION     0.49     1.68     8.48     0  02:19        1.68
  YS02001613           JUNCTION     0.45     1.70     8.54     0  02:19        1.65
  YS02001616           JUNCTION     0.39     1.61     8.52     0  02:19        1.59
  YS02001619           JUNCTION     0.37     1.61     8.53     0  02:19        1.59
  YS02001622           JUNCTION     0.36     1.56     8.47     0  02:25        1.56
  YS02001625           JUNCTION     0.60     1.78     8.38     0  02:22        1.78
  YS02001629           JUNCTION     0.48     1.85     8.40     0  02:19        1.85
  YS02001633           JUNCTION     0.55     2.04     8.49     0  02:23        1.99
  YS02001641           JUNCTION     0.51     1.94     8.38     0  02:24        1.93
  YS02001644           JUNCTION     0.50     1.92     8.35     0  02:24        1.92
  YS02001647           JUNCTION     0.29     1.81     8.42     0  02:24        1.71
  YS02001649           JUNCTION     0.32     2.05     8.44     0  02:24        1.90
  YS02001652           JUNCTION     0.21     2.13     8.73     0  02:24        1.74
  YS02001655           JUNCTION     0.14     2.12     8.97     0  02:24        1.55
  YS02001658           JUNCTION     0.10     2.27     9.41     0  02:24        1.31
  YS02001661           JUNCTION     0.14     1.09     8.50     0  02:26        1.09
  YS02001664           JUNCTION     0.06     0.52     8.45     0  02:25        0.33
  YS02001745           JUNCTION     0.06     0.71     8.22     0  02:24        0.69
  YS02001748           JUNCTION     0.09     2.11     9.19     0  02:25        1.07
  YS02001751           JUNCTION     0.11     1.92     8.80     0  02:25        1.28
  YS02001754           JUNCTION     0.16     1.89     8.50     0  02:25        1.53
  YS02001757           JUNCTION     0.32     2.05     8.31     0  02:25        1.89
  YS02001759           JUNCTION     0.26     1.98     8.34     0  02:25        1.85
  YS02001762           JUNCTION     0.25     1.97     8.37     0  02:25        1.84
  YS02001765           JUNCTION     0.23     1.96     8.41     0  02:25        1.82
  YS02001767           JUNCTION     0.23     1.91     8.40     0  02:25        1.80
  YS02001770           JUNCTION     0.24     1.95     8.44     0  02:25        1.85
  YS02001774           JUNCTION     0.30     2.02     8.44     0  02:25        1.93
  YS02001779           JUNCTION     0.14     1.68     8.37     0  02:23        1.66
  YS02001783           JUNCTION     0.28     1.41     7.55     0  02:22        1.21
  YS02001784           JUNCTION     0.29     1.20     7.27     0  02:22        1.11
  YS02001786           JUNCTION     0.24     0.95     6.98     0  02:22        0.86
  YS02001788           JUNCTION     0.18     0.62     6.60     0  02:24        0.62
  YS02001790           JUNCTION     0.21     0.72     6.37     0  02:24        0.71
  YS02001791           JUNCTION     0.13     0.44     5.91     0  02:24        0.43
  YS02001793           JUNCTION     0.08     0.26     5.09     0  02:26        0.26
  YS02001882           JUNCTION     0.34     1.65     8.37     0  02:21        1.63
  YS02001884           JUNCTION     0.43     1.74     8.36     0  02:22        1.73
  YS02001887           JUNCTION     0.50     1.81     8.35     0  02:22        1.81
  YS02001890           JUNCTION     0.53     1.81     8.32     0  02:22        1.81
  YS02001895           JUNCTION     0.31     1.57     8.31     0  02:23        1.56
  YS02001898           JUNCTION     0.32     1.57     8.31     0  02:23        1.56
  YS02001901           JUNCTION     0.42     1.68     8.29     0  02:23        1.67
  YS02001904           JUNCTION     0.41     1.64     8.27     0  02:23        1.63
  YS02001907           JUNCTION     0.71     1.96     8.25     0  02:22        1.96
  YS02001910           JUNCTION     0.52     1.99     8.50     0  02:23        1.85
  YS02001915           JUNCTION     0.35     1.94     8.65     0  02:23        1.72
  YS02001918           JUNCTION     0.19     1.81     8.88     0  02:23        1.43
  YS02001920           JUNCTION     0.27     2.14     9.15     0  02:23        1.52
  YS02001923           JUNCTION     0.14     2.03     9.29     0  02:23        1.30
  YS02001926           JUNCTION     0.17     1.90     9.35     0  02:23        1.12
  YS02001929           JUNCTION     0.10     1.78     9.47     0  02:23        0.89
  YS02006553           JUNCTION     0.71     2.00     8.28     0  02:22        1.97
  YS02006556           JUNCTION     0.68     2.01     8.32     0  02:22        1.94
  YS02006558           JUNCTION     0.72     2.06     8.32     0  02:22        1.98
  YS02006561           JUNCTION     0.17     1.11     7.77     0  02:22        0.88
  YS02163301           JUNCTION     0.50     1.93     8.45     0  02:23        1.90
  YS02163601           JUNCTION     0.58     2.05     8.44     0  02:23        1.99
  YS02164001           JUNCTION     0.51     1.95     8.40     0  02:24        1.92
  CC-1                 OUTFALL      0.00     0.00     0.00     0  00:00        0.00
  CC-2                 OUTFALL      0.00     0.00     0.00     0  00:00        0.00
  JK-1                 OUTFALL      0.00     0.00     0.00     0  00:00        0.00
  JK-2                 OUTFALL      0.00     0.00     0.00     0  00:00        0.00
  WSC                  OUTFALL      0.15     0.29     0.96     0  02:43        0.29
  CC-storage           STORAGE      0.11     0.80     6.30     0  00:00        0.76
  JK-storage           STORAGE      0.02     2.99     3.79     0  00:00        0.68
  
  
  *******************
  Node Inflow Summary
  *******************
  
  -------------------------------------------------------------------------------------------------
                                  Maximum  Maximum                  Lateral       Total        Flow
                                  Lateral    Total  Time of Max      Inflow      Inflow     Balance
                                   Inflow   Inflow   Occurrence      Volume      Volume       Error
  Node                 Type           LPS      LPS  days hr:min    10^6 ltr    10^6 ltr     Percent
  -------------------------------------------------------------------------------------------------
  WS02003060           JUNCTION     16.53   512.35     0  02:40       0.471         3.5       0.067
  WS02003066           JUNCTION      0.00   495.73     0  02:40           0        3.03       0.050
  WS02003067           JUNCTION      0.00   495.66     0  02:40           0        3.03       0.140
  WS02003069           JUNCTION      0.32   512.62     0  02:41     0.00912        3.51       0.121
  WS02003072           JUNCTION      0.00   512.48     0  02:42           0         3.5       0.216
  WS02003073           JUNCTION      1.82   514.23     0  02:43      0.0519        3.55       0.169
  WS02004401           JUNCTION      0.00   498.08     0  02:31           0        3.14       0.339
  WS02004402           JUNCTION      0.00   497.93     0  02:33           0        3.13       0.343
  WS02004403           JUNCTION      0.00   497.46     0  02:33           0        3.12       0.335
  WS02004404           JUNCTION      0.16   497.72     0  02:33     0.00462        3.11       0.278
  WS02004405           JUNCTION      0.04   497.83     0  02:33     0.00109         3.1       0.409
  WS02004406           JUNCTION      0.00   497.77     0  02:33           0        3.09       0.696
  WS02004407           JUNCTION      0.00   497.48     0  02:33           0        3.07       0.041
  WS02004409           JUNCTION      0.00   497.31     0  02:34           0        3.07       0.094
  WS02004410           JUNCTION      0.00   496.30     0  02:34           0        3.07       0.156
  WS02004411           JUNCTION      0.00   495.91     0  02:40           0        3.06       0.192
  WS02004412           JUNCTION      0.00   496.02     0  02:39           0        3.06       0.254
  WS02004413           JUNCTION      0.00   495.93     0  02:40           0        3.05       0.469
  WS02006109           JUNCTION      1.23   503.69     0  02:25      0.0351        3.19       0.351
  WS02006110           JUNCTION      0.00   503.56     0  02:25           0        3.18       0.229
  WS02006111           JUNCTION      0.00   520.95     0  02:25           0        3.17       0.042
  WS02006112           JUNCTION      0.00   504.62     0  02:26           0        3.17       0.658
  WS02006113           JUNCTION      0.00   503.90     0  02:25           0        3.17       0.057
  WS02006115           JUNCTION      0.00   504.01     0  02:31           0        3.15       0.237
  WS02006116           JUNCTION      0.00   499.42     0  02:31           0        3.14       0.104
  WS02006228           JUNCTION      0.00   502.98     0  02:25           0        3.16       0.156
  WS02006229           JUNCTION      0.00   502.38     0  02:25           0        3.17       0.155
  WS02006230           JUNCTION     10.28   530.49     0  02:36       0.293        3.17       0.204
  WS02006231           JUNCTION      0.00   512.59     0  02:36           0        2.88       0.088
  WS02006232           JUNCTION      0.00   510.29     0  02:36           0        2.89       0.234
  WS02006234           JUNCTION      0.00   507.74     0  02:36           0        2.88      -0.433
  WS02006235           JUNCTION      0.00   510.53     0  02:22           0        3.07       0.456
  WS02006238           JUNCTION      0.00   418.92     0  02:57           0        2.46       0.192
  WS02006239           JUNCTION      0.00   414.31     0  02:57           0        2.31      -0.175
  WS02006240           JUNCTION      0.00   411.78     0  02:48           0        2.27      -0.082
  WS02006242           JUNCTION      0.00   412.59     0  02:48           0        2.27      -0.043
  WS02006243           JUNCTION      0.00   413.05     0  02:48           0        2.26      -0.310
  WS02006245           JUNCTION      0.00   415.88     0  02:16           0        2.28       0.781
  WS02006247           JUNCTION      0.00   419.53     0  02:18           0        2.28      -0.109
  WS02006248           JUNCTION      0.00   422.35     0  02:18           0        2.27      -0.537
  WS02006249           JUNCTION      0.00   461.55     0  02:14           0        2.31       1.444
  WS02006251           JUNCTION      0.08   410.41     0  03:14     0.00219        2.31       0.014
  WS02006252           JUNCTION      0.00   400.00     0  00:00           0        2.29      -1.019
  WS02006256           JUNCTION      0.00   300.00     0  00:00           0       0.733     -19.948
  WSF200               JUNCTION      0.00   495.71     0  02:40           0        3.03       0.018
  YS02001580           JUNCTION      0.00   127.09     0  02:19           0     0.00406      -1.628
  YS02001583           JUNCTION      0.00   160.31     0  02:19           0      0.0151      -4.251
  YS02001586           JUNCTION    453.97   454.05     0  02:26           1        1.01       0.131
  YS02001590           JUNCTION      0.00   317.78     0  02:28           0       0.938      -0.037
  YS02001593           JUNCTION      0.00   317.93     0  02:28           0       0.938       0.023
  YS02001596           JUNCTION      0.00   317.81     0  02:33           0       0.938      -0.002
  YS02001600           JUNCTION      0.00   317.89     0  02:28           0       0.938       0.030
  YS02001601           JUNCTION    842.47  1159.89     0  02:26        1.44        2.38       0.042
  YS02001602           JUNCTION      0.00   511.37     0  02:19           0         1.8       0.031
  YS02001605           JUNCTION      0.00   511.31     0  02:41           0        1.76       0.039
  YS02001607           JUNCTION      0.00   511.47     0  02:41           0        1.75       0.117
  YS02001610           JUNCTION      0.00   513.82     0  02:19           0        1.75       0.141
  YS02001613           JUNCTION      0.00   515.25     0  02:18           0         1.6       0.113
  YS02001616           JUNCTION      0.00   517.54     0  02:19           0         1.6       0.028
  YS02001619           JUNCTION    809.59   926.44     0  02:22        1.59        3.19       0.005
  YS02001622           JUNCTION      0.00   926.53     0  02:22           0        3.19       0.009
  YS02001625           JUNCTION      0.00   930.42     0  02:19           0        3.19       0.283
  YS02001629           JUNCTION      0.00   930.99     0  02:19           0        2.91       0.031
  YS02001633           JUNCTION    632.40  1385.77     0  02:22        1.04        3.94       0.093
  YS02001641           JUNCTION      0.00  1383.75     0  02:22           0        3.94       0.074
  YS02001644           JUNCTION    565.54  1799.69     0  02:22       0.898        4.83       0.072
  YS02001647           JUNCTION      0.00  1801.26     0  02:22           0        4.81       0.008
  YS02001649           JUNCTION      0.00  2065.52     0  02:22           0        5.61       0.007
  YS02001652           JUNCTION      0.00   675.63     0  02:26           0       0.805      -0.084
  YS02001655           JUNCTION      0.15   675.24     0  02:26     0.00439       0.805       0.042
  YS02001658           JUNCTION      0.00   683.12     0  02:24           0       0.801      -0.021
  YS02001661           JUNCTION      0.00   771.43     0  02:25           0       0.801       0.029
  YS02001664           JUNCTION    559.10   559.10     0  02:25       0.801       0.801      -0.010
  YS02001745           JUNCTION    363.78   394.67     0  02:24       0.499       0.499       0.179
  YS02001748           JUNCTION      0.04   590.49     0  02:25     0.00128         0.5      -0.222
  YS02001751           JUNCTION      0.01   418.82     0  02:25    0.000313       0.507       0.117
  YS02001754           JUNCTION      0.26   419.70     0  02:25     0.00741       0.519      -0.129
  YS02001757           JUNCTION      0.00  3211.63     0  02:26           0        7.88       0.008
  YS02001759           JUNCTION    504.22  1216.73     0  02:24       0.685        1.76      -0.006
  YS02001762           JUNCTION      0.00   713.57     0  02:24           0        1.07       0.024
  YS02001765           JUNCTION      0.00   712.52     0  02:24           0        1.07       0.000
  YS02001767           JUNCTION      0.54   711.27     0  02:24      0.0152        1.07       0.020
  YS02001770           JUNCTION    702.87   706.00     0  02:24        1.06         1.1       0.010
  YS02001774           JUNCTION      0.00   305.65     0  02:23           0      0.0594       2.034
  YS02001779           JUNCTION      0.01   307.44     0  02:23    0.000142      0.0184      -1.633
  YS02001783           JUNCTION      0.00  1155.00     0  02:24           0        2.98       0.010
  YS02001784           JUNCTION      1.06  1156.17     0  02:23      0.0302        3.01       0.019
  YS02001786           JUNCTION      0.06  1156.25     0  02:24      0.0016        3.01       0.023
  YS02001788           JUNCTION      0.07  1156.50     0  02:23     0.00202        3.01       0.010
  YS02001790           JUNCTION      0.15  1164.59     0  02:26     0.00442        3.01       0.005
  YS02001791           JUNCTION      0.00  1288.19     0  02:24           0        3.01       0.005
  YS02001793           JUNCTION      0.00  1248.15     0  02:26           0        3.01       0.014
  YS02001882           JUNCTION      0.00    51.12     0  02:21           0      0.0126       5.233
  YS02001884           JUNCTION      0.00    74.16     0  02:20           0       0.048       5.562
  YS02001887           JUNCTION    550.73   550.76     0  02:25        0.73       0.763       0.598
  YS02001890           JUNCTION      0.00   551.24     0  02:25           0       0.722       0.722
  YS02001895           JUNCTION      0.00   511.05     0  02:26           0       0.712       0.187
  YS02001898           JUNCTION      0.00   511.27     0  02:26           0       0.711       0.067
  YS02001901           JUNCTION      0.00   510.94     0  02:26           0       0.713       0.454
  YS02001904           JUNCTION      0.00   511.28     0  02:26           0       0.716       0.411
  YS02001907           JUNCTION      0.00  1514.18     0  02:24           0        2.32       0.788
  YS02001910           JUNCTION      0.00  1018.54     0  02:24           0        1.61       0.449
  YS02001915           JUNCTION    614.00  1018.08     0  02:24           1        1.65       0.100
  YS02001918           JUNCTION      0.00   438.78     0  02:24           0       0.676       0.039
  YS02001920           JUNCTION      2.87   438.61     0  02:24      0.0818        0.66       0.121
  YS02001923           JUNCTION      0.04   391.42     0  02:24     0.00107       0.562      -0.110
  YS02001926           JUNCTION      0.05   531.86     0  02:23     0.00149       0.541      -0.143
  YS02001929           JUNCTION    295.86   343.58     0  02:23       0.529        0.53      -0.032
  YS02006553           JUNCTION      0.00   794.81     0  02:35           0        1.96       0.611
  YS02006556           JUNCTION      0.00   794.86     0  02:35           0        1.97       0.425
  YS02006558           JUNCTION    723.55  1178.02     0  02:22        1.06        3.01       0.115
  YS02006561           JUNCTION      0.00  1179.10     0  02:22           0        2.98       0.002
  YS02163301           JUNCTION      0.00   926.24     0  02:22           0        2.91       0.059
  YS02163601           JUNCTION      0.11  1385.57     0  02:22     0.00313        3.94       0.129
  YS02164001           JUNCTION      0.00  1385.17     0  02:22           0        3.94       0.065
  CC-1                 OUTFALL       0.00   683.00     0  00:00           0        3.91       0.000
  CC-2                 OUTFALL       0.00   683.00     0  00:00           0        3.91       0.000
  JK-1                 OUTFALL       0.00  1000.00     0  00:00           0        1.81       0.000
  JK-2                 OUTFALL       0.00  1000.00     0  00:00           0        1.81       0.000
  WSC                  OUTFALL       0.00   514.11     0  02:43           0        3.54       0.000
  CC-storage           STORAGE       0.00  3211.69     0  02:26           0        10.1      -0.424
  JK-storage           STORAGE       0.00  1299.38     0  02:26           0        3.16     -26.902
  
  
  **********************
  Node Surcharge Summary
  **********************
  
  Surcharging occurs when water rises above the top of the highest conduit.
  ---------------------------------------------------------------------
                                               Max. Height   Min. Depth
                                   Hours       Above Crown    Below Rim
  Node                 Type      Surcharged         Meters       Meters
  ---------------------------------------------------------------------
  WS02006109           JUNCTION        0.99          0.115        1.705
  WS02006112           JUNCTION        0.19          0.017        1.663
  WS02006228           JUNCTION        0.98          0.139        2.061
  WS02006229           JUNCTION        1.01          0.163        2.287
  WS02006231           JUNCTION        0.27          0.224        1.306
  WS02006232           JUNCTION        1.08          0.498        0.982
  WS02006234           JUNCTION        0.80          0.732        0.508
  WS02006235           JUNCTION        1.00          0.874        0.416
  WS02006238           JUNCTION        1.04          0.951        0.479
  WS02006239           JUNCTION        1.01          0.858        0.432
  WS02006240           JUNCTION        1.01          0.765        0.625
  WS02006242           JUNCTION        1.11          0.820        0.000
  WS02006243           JUNCTION        1.02          0.770        0.000
  WS02006245           JUNCTION        1.02          0.850        0.000
  WS02006247           JUNCTION        1.04          0.760        0.000
  WS02006248           JUNCTION        1.01          0.380        0.000
  WS02006249           JUNCTION        1.03          0.390        0.000
  WS02006251           JUNCTION        0.40          0.112        1.068
  WS02006252           JUNCTION        1.58          1.100        0.000
  WS02006256           JUNCTION        6.43          2.050        0.000
  YS02001580           JUNCTION        0.33          0.450        0.000
  YS02001583           JUNCTION        0.33          0.500        0.000
  YS02001586           JUNCTION        0.43          0.510        0.000
  YS02001590           JUNCTION        0.49          0.734        0.016
  YS02001593           JUNCTION        0.50          0.781        0.059
  YS02001596           JUNCTION        0.59          1.024        0.046
  YS02001600           JUNCTION        0.72          1.190        0.000
  YS02001601           JUNCTION        1.05          1.440        0.000
  YS02001602           JUNCTION        0.94          1.270        0.000
  YS02001605           JUNCTION        0.89          1.180        0.000
  YS02001607           JUNCTION        0.44          0.659        0.021
  YS02001610           JUNCTION        0.46          0.680        0.000
  YS02001613           JUNCTION        0.43          0.695        0.005
  YS02001616           JUNCTION        0.39          0.610        0.000
  YS02001619           JUNCTION        0.38          0.606        0.004
  YS02001622           JUNCTION        0.37          0.565        0.055
  YS02001625           JUNCTION        0.54          0.780        0.000
  YS02001629           JUNCTION        0.30          0.470        0.000
  YS02001633           JUNCTION        0.55          1.021        0.039
  YS02001641           JUNCTION        0.45          0.944        0.156
  YS02001644           JUNCTION        0.39          0.920        0.000
  YS02001647           JUNCTION        0.21          0.809        0.091
  YS02001649           JUNCTION        0.23          1.050        0.000
  YS02001652           JUNCTION        0.15          1.101        0.029
  YS02001655           JUNCTION        0.10          1.122        0.078
  YS02001658           JUNCTION        0.04          1.273        0.027
  YS02001661           JUNCTION        0.01          0.024        1.366
  YS02001748           JUNCTION        0.01          1.034        0.156
  YS02001751           JUNCTION        0.06          0.923        0.277
  YS02001754           JUNCTION        0.10          0.840        0.310
  YS02001757           JUNCTION        0.22          1.051        0.159
  YS02001759           JUNCTION        0.19          0.977        0.233
  YS02001762           JUNCTION        0.18          0.974        0.176
  YS02001765           JUNCTION        0.16          0.958        0.142
  YS02001767           JUNCTION        0.16          0.915        0.115
  YS02001770           JUNCTION        0.15          0.920        0.000
  YS02001774           JUNCTION        0.18          1.015        0.035
  YS02001779           JUNCTION        0.12          0.680        0.000
  YS02001783           JUNCTION        0.34          0.608        0.992
  YS02001784           JUNCTION        0.31          0.403        1.087
  YS02001786           JUNCTION        0.22          0.148        1.282
  YS02001882           JUNCTION        0.29          0.651        0.179
  YS02001884           JUNCTION        0.30          0.682        0.188
  YS02001887           JUNCTION        0.33          0.761        0.189
  YS02001890           JUNCTION        0.34          0.760        0.000
  YS02001895           JUNCTION        0.28          0.566        0.184
  YS02001898           JUNCTION        0.27          0.544        0.196
  YS02001901           JUNCTION        0.32          0.683        0.187
  YS02001904           JUNCTION        0.31          0.642        0.208
  YS02001907           JUNCTION        0.53          0.950        0.000
  YS02001910           JUNCTION        0.36          0.993        0.107
  YS02001915           JUNCTION        0.29          0.936        0.064
  YS02001918           JUNCTION        0.21          0.810        0.000
  YS02001920           JUNCTION        0.23          1.140        0.000
  YS02001923           JUNCTION        0.01          0.820        0.000
  YS02001926           JUNCTION        0.01          0.900        0.000
  YS02001929           JUNCTION        0.01          0.780        0.000
  YS02006553           JUNCTION        0.54          0.997        0.193
  YS02006556           JUNCTION        0.44          0.970        0.380
  YS02006558           JUNCTION        0.43          0.958        0.442
  YS02006561           JUNCTION        0.18          0.306        0.844
  YS02163301           JUNCTION        0.53          0.935        0.095
  YS02163601           JUNCTION        0.57          1.045        0.035
  YS02164001           JUNCTION        0.46          0.946        0.154
  
  
  *********************
  Node Flooding Summary
  *********************
  
  Flooding refers to all water that overflows a node, whether it ponds or not.
  --------------------------------------------------------------------------
                                                             Total   Maximum
                                 Maximum   Time of Max       Flood    Ponded
                        Hours       Rate    Occurrence      Volume     Depth
  Node                 Flooded       LPS   days hr:min    10^6 ltr    Meters
  --------------------------------------------------------------------------
  WS02006242              0.01      0.91      0  02:57       0.000     0.000
  WS02006243              0.01      1.20      0  02:57       0.000     0.000
  WS02006245              0.01      0.62      0  02:57       0.000     0.000
  WS02006247              0.01      0.55      0  02:42       0.000     0.000
  WS02006248              0.01      4.88      0  02:36       0.000     0.000
  WS02006249              0.29     26.90      0  02:36       0.010     0.000
  WS02006252              0.01    267.72      0  03:12       0.003     0.000
  WS02006256              0.71    293.19      0  00:00       0.268     0.000
  YS02001580              0.01     99.75      0  02:19       0.000     0.000
  YS02001583              0.01     68.73      0  02:19       0.000     0.000
  YS02001586              0.23    136.56      0  02:26       0.062     0.000
  YS02001600              0.01      7.59      0  02:42       0.000     0.000
  YS02001601              0.37    762.09      0  02:26       0.576     0.000
  YS02001602              0.24     61.85      0  02:32       0.047     0.000
  YS02001605              0.01      3.69      0  02:19       0.000     0.000
  YS02001610              0.20    301.89      0  02:27       0.148     0.000
  YS02001616              0.01     14.33      0  02:19       0.000     0.000
  YS02001625              0.17    886.01      0  02:27       0.272     0.000
  YS02001629              0.05    134.96      0  02:19       0.006     0.000
  YS02001644              0.04    249.71      0  02:26       0.019     0.000
  YS02001649              0.01     25.56      0  02:24       0.000     0.000
  YS02001770              0.01     12.51      0  02:25       0.000     0.000
  YS02001779              0.01    264.16      0  02:23       0.002     0.000
  YS02001890              0.05     47.85      0  02:25       0.005     0.000
  YS02001907              0.17   1059.49      0  02:24       0.350     0.000
  YS02001918              0.01    144.35      0  02:23       0.002     0.000
  YS02001920              0.01     33.42      0  02:23       0.000     0.000
  YS02001923              0.01    201.21      0  02:23       0.001     0.000
  YS02001926              0.01    294.58      0  02:23       0.001     0.000
  YS02001929              0.01    233.33      0  02:23       0.001     0.000
  
  
  **********************
  Storage Volume Summary
  **********************
  
  ------------------------------------------------------------------------------------------------
                         Average    Avg   Evap  Exfil     Maximum    Max    Time of Max    Maximum
                          Volume   Pcnt   Pcnt   Pcnt      Volume   Pcnt     Occurrence    Outflow
  Storage Unit           1000 m³   Full   Loss   Loss     1000 m³   Full    days hr:min        LPS
  ------------------------------------------------------------------------------------------------
  CC-storage               0.310    4.8    0.0    0.0       2.229   34.8       0  00:00    1783.53
  JK-storage               0.001    0.3    0.0    0.0       0.150   51.6       0  00:00    2300.00
  
  
  ***********************
  Outfall Loading Summary
  ***********************
  
  -----------------------------------------------------------
                         Flow       Avg       Max       Total
                         Freq      Flow      Flow      Volume
  Outfall Node           Pcnt       LPS       LPS    10^6 ltr
  -----------------------------------------------------------
  CC-1                  39.53    683.00    683.00       3.906
  CC-2                  39.53    683.00    683.00       3.906
  JK-1                  15.23    868.79   1000.00       1.813
  JK-2                  15.23    868.79   1000.00       1.813
  WSC                   99.94    181.44    514.11       3.540
  -----------------------------------------------------------
  System                41.89   3285.03   3880.11      14.978
  
  
  ********************
  Link Flow Summary
  ********************
  
  -----------------------------------------------------------------------------
                                 Maximum  Time of Max   Maximum    Max/    Max/
                                  |Flow|   Occurrence   |Veloc|    Full    Full
  Link                 Type          LPS  days hr:min     m/sec    Flow   Depth
  -----------------------------------------------------------------------------
  1                    CONDUIT    514.11     0  02:43      2.77    0.18    0.29
  WS02003060WS02003069 CONDUIT    512.30     0  02:41      1.61    0.20    0.32
  WS02003066WSF200     CONDUIT    495.71     0  02:40      2.80    0.08    0.21
  WS02003067WS02003066 CONDUIT    495.73     0  02:40      1.15    0.16    0.40
  WS02003069WS02003072 CONDUIT    512.48     0  02:42      1.34    0.25    0.37
  WS02003072WS02003073 CONDUIT    512.41     0  02:43      1.40    1.11    0.36
  WS02004401WS02004402 CONDUIT    497.93     0  02:33      1.22    0.60    0.83
  WS02004402WS02004403 CONDUIT    497.46     0  02:33      1.24    0.71    0.86
  WS02004403WS02004404 CONDUIT    497.56     0  02:33      1.24    0.36    0.90
  WS02004404WS02004405 CONDUIT    497.79     0  02:33      1.45    4.88    0.93
  WS02004405WS02004406 CONDUIT    497.77     0  02:33      1.46    0.98    0.93
  WS02004406WS02004407 CONDUIT    497.48     0  02:33      0.99    0.22    0.61
  WS02004407WS02004409 CONDUIT    497.31     0  02:34      1.59    0.18    0.46
  WS02004409WS02004410 CONDUIT    496.30     0  02:34      1.06    0.64    0.65
  WS02004410WS02004411 CONDUIT    495.91     0  02:40      1.12    0.68    0.66
  WS02004411WS02004412 CONDUIT    496.02     0  02:39      1.22    0.70    0.67
  WS02004412WS02004413 CONDUIT    495.93     0  02:40      1.22    0.33    0.75
  WS02004413WS02003067 CONDUIT    495.66     0  02:40      1.06    0.21    0.57
  WS02006109WS02006110 CONDUIT    503.56     0  02:25      1.00    0.97    0.99
  WS02006110WS02006113 CONDUIT    503.90     0  02:25      1.21    0.46    0.77
  WS02006111WS02006112 CONDUIT    504.62     0  02:26      1.95    0.24    0.67
  WS02006112WS02006115 CONDUIT    504.01     0  02:31      0.82    0.30    0.85
  WS02006113WS02006111 CONDUIT    520.95     0  02:25      2.41    0.62    0.45
  WS02006115WS02006116 CONDUIT    499.42     0  02:31      1.29    0.64    0.73
  WS02006116WS02004401 CONDUIT    498.08     0  02:31      1.21    0.69    0.81
  WS02006228WS02006109 CONDUIT    502.46     0  02:25      1.06    2.20    1.00
  WS02006229WS02006228 CONDUIT    502.98     0  02:25      1.12    1.67    1.00
  WS02006230WS02006229 CONDUIT    502.38     0  02:25      1.31   11.18    1.00
  WS02006231WS02006230 CONDUIT    520.21     0  02:36      1.39    7.89    0.97
  WS02006232WS02006231 CONDUIT    512.59     0  02:36      1.33    1.07    1.00
  WS02006234WS02006232 CONDUIT    510.29     0  02:36      1.39    1.03    1.00
  WS02006235WS02006234 CONDUIT    507.74     0  02:36      1.32    5.36    1.00
  WS02006238WS02006235 CONDUIT    423.36     0  02:47      1.45    0.95    1.00
  WS02006239WS02006238 CONDUIT    418.92     0  02:57      1.11    1.34    1.00
  WS02006240WS02006239 CONDUIT    414.31     0  02:57      1.24    1.30    1.00
  WS02006242WS02006240 CONDUIT    411.78     0  02:48      1.16    1.64    1.00
  WS02006243WS02006242 CONDUIT    412.59     0  02:48      1.38    0.88    1.00
  WS02006245WS02006243 CONDUIT    413.05     0  02:48      1.44    1.22    1.00
  WS02006247WS02006245 CONDUIT    415.88     0  02:16      1.43    3.30    1.00
  WS02006248WS02006247 CONDUIT    419.53     0  02:18      1.42    0.91    1.00
  WS02006249WS02006248 CONDUIT    422.35     0  02:18      1.36    2.31    1.00
  WS02006251WS02006249 CONDUIT    461.55     0  02:14      2.19    1.33    1.00
  WS02006252WS02006251 CONDUIT    405.65     0  02:11     26.94    1.49    1.00
  WS02006256WS02006235 CONDUIT    288.91     0  00:00      4.23    3.06    1.00
  WSF200WS02003060     CONDUIT    495.82     0  02:40      2.02    0.11    0.27
  YS02001580YS02001583 CONDUIT    127.09     0  02:19      0.66    0.49    1.00
  YS02001583YS02001586 CONDUIT    156.94     0  02:19      0.65    0.24    1.00
  YS02001586YS02001590 CONDUIT    317.78     0  02:28      1.25    0.56    1.00
  YS02001590YS02001593 CONDUIT    317.93     0  02:28      1.12    2.00    1.00
  YS02001593YS02001596 CONDUIT    317.81     0  02:33      1.73    0.50    1.00
  YS02001596YS02001600 CONDUIT    317.89     0  02:28      1.22    0.62    1.00
  YS02001600YS02001601 CONDUIT    317.75     0  02:28      1.12    0.55    1.00
  YS02001601YS02001602 CONDUIT    511.37     0  02:19      1.81    1.85    1.00
  YS02001602YS02001605 CONDUIT    511.31     0  02:41      1.81   10.82    1.00
  YS02001605YS02001607 CONDUIT    511.47     0  02:41      1.81    2.80    1.00
  YS02001607YS02001610 CONDUIT    513.82     0  02:19      0.65    0.49    1.00
  YS02001610YS02001613 CONDUIT    515.25     0  02:18      0.66    0.59    1.00
  YS02001613YS02001616 CONDUIT    517.54     0  02:19      0.66    0.44    1.00
  YS02001616YS02001619 CONDUIT    521.28     0  02:42      0.69    0.91    1.00
  YS02001619YS02001622 CONDUIT    926.53     0  02:22      1.18    1.37    1.00
  YS02001622YS02001625 CONDUIT    930.42     0  02:19      1.18    0.50    1.00
  YS02001625YS02001629 CONDUIT    930.99     0  02:19      1.19    0.44    1.00
  YS02001629YS02163301 CONDUIT    926.24     0  02:22      1.18    1.14    1.00
  YS02001633YS02163601 CONDUIT   1385.46     0  02:22      1.76    1.45    1.00
  YS02001641YS02001644 CONDUIT   1383.53     0  02:22      1.76    4.47    1.00
  YS02001644YS02001647 CONDUIT   1801.26     0  02:22      2.29    1.06    1.00
  YS02001647YS02001649 CONDUIT   1818.81     0  02:22      2.32    0.96    1.00
  YS02001649YS02001757 CONDUIT   2067.43     0  02:22      2.64    1.25    1.00
  YS02001652YS02001649 CONDUIT    676.52     0  02:26      0.86    0.34    1.00
  YS02001655YS02001652 CONDUIT    675.63     0  02:26      1.24    0.33    1.00
  YS02001658YS02001655 CONDUIT    675.09     0  02:26      1.88    0.29    1.00
  YS02001661YS02001658 CONDUIT    683.12     0  02:24      2.34    0.27    1.00
  YS02001664YS02001661 CONDUIT    771.43     0  02:25      2.34    0.24    0.72
  YS02001745YS02001748 CONDUIT    590.44     0  02:25      2.20    0.23    0.85
  YS02001748YS02001751 CONDUIT    418.81     0  02:25      1.69    0.21    1.00
  YS02001751YS02001754 CONDUIT    419.44     0  02:25      1.35    0.20    1.00
  YS02001754YS02001757 CONDUIT    419.45     0  02:25      0.53    0.17    1.00
  YS02001757CaochengTiaoxuchi CONDUIT   3211.69     0  02:26      6.96    1.39    0.69
  YS02001759YS02001757 CONDUIT   1216.25     0  02:24      1.55    0.86    1.00
  YS02001762YS02001759 CONDUIT    714.41     0  02:24      0.91    0.82    1.00
  YS02001765YS02001762 CONDUIT    713.57     0  02:24      0.91    0.67    1.00
  YS02001767YS02001765 CONDUIT    712.52     0  02:24      0.91    0.90    1.00
  YS02001770YS02001767 CONDUIT    710.74     0  02:24      0.90    2.82    1.00
  YS02001774YS02001770 CONDUIT    305.65     0  02:23      0.39    0.20    1.00
  YS02001779YS02001774 CONDUIT    307.44     0  02:23      0.39    0.15    1.00
  YS02001783YS02001784 CONDUIT   1155.11     0  02:23      2.30    1.59    1.00
  YS02001784YS02001785 CONDUIT   1156.19     0  02:24      2.30    2.69    1.00
  YS02001786YS02001788 CONDUIT   1156.42     0  02:23      2.47    2.23    0.89
  YS02001788YS02001790 CONDUIT   1164.43     0  02:26      2.71    0.86    0.84
  YS02001790YS02001791 CONDUIT   1288.19     0  02:24      3.43    1.40    0.70
  YS02001791YS02001793 CONDUIT   1248.15     0  02:26      6.35    0.54    0.43
  YS02001793JiankangQianchi CONDUIT   1299.38     0  02:26     24.30    0.10    0.50
  YS02001882YS02001884 CONDUIT     51.12     0  02:21      0.08    0.06    1.00
  YS02001884YS02001887 CONDUIT     74.16     0  02:20      0.09    0.10    1.00
  YS02001887YS02001890 CONDUIT    551.24     0  02:25      0.70    0.94    1.00
  YS02001890YS02001895 CONDUIT    511.05     0  02:26      0.65    0.24    1.00
  YS02001895YS02001898 CONDUIT    511.27     0  02:26      0.65    0.89    1.00
  YS02001898YS02001901 CONDUIT    510.94     0  02:26      0.65    0.33    1.00
  YS02001901YS02001904 CONDUIT    511.28     0  02:26      0.65    0.79    1.00
  YS02001904YS02001907 CONDUIT    511.41     0  02:26      0.65    0.18    1.00
  YS02001907YS02006553 CONDUIT    794.81     0  02:35      0.88    0.93    1.00
  YS02001910YS02001907 CONDUIT   1018.21     0  02:24      1.30    0.57    1.00
  YS02001915YS02001910 CONDUIT   1018.54     0  02:24      1.30    0.51    1.00
  YS02001918YS02001915 CONDUIT    439.03     0  02:24      0.56    0.24    1.00
  YS02001920YS02001918 CONDUIT    438.78     0  02:24      0.66    0.42    1.00
  YS02001923YS02001920 CONDUIT    435.74     0  02:24      0.69    0.20    1.00
  YS02001926YS02001923 CONDUIT    418.51     0  02:23      0.96    0.60    1.00
  YS02001929YS02001926 CONDUIT    385.97     0  02:24      1.13    0.18    1.00
  YS02006553YS02006556 CONDUIT    794.86     0  02:35      1.01    0.68    1.00
  YS02006556YS02006558 CONDUIT    796.05     0  02:35      1.01    0.63    1.00
  YS02006558YS02006561 CONDUIT   1179.10     0  02:22      4.17    2.61    1.00
  YS02006561YS02001783 CONDUIT   1155.00     0  02:24      2.30    0.60    1.00
  YS02163301YS02001633 CONDUIT    926.10     0  02:22      1.18    0.87    1.00
  YS02163601YS02164001 CONDUIT   1385.17     0  02:22      1.76    1.23    1.00
  YS02164001YS02001641 CONDUIT   1383.75     0  02:22      1.76    1.89    1.00
  CC-R1                PUMP       683.00     0  00:00              1.00
  CC-R2                PUMP       683.00     0  00:00              1.00
  CC-S1                PUMP       200.00     0  00:00              1.00
  CC-S2                PUMP       200.00     0  00:00              1.00
  JK-R1                PUMP      1000.00     0  00:00              1.00
  JK-R2                PUMP      1000.00     0  00:00              1.00
  JK-S                 PUMP       300.00     0  00:00              1.00
  
  
  ***************************
  Flow Classification Summary
  ***************************
  
  -------------------------------------------------------------------------------------
                      Adjusted    ---------- Fraction of Time in Flow Class ---------- 
                       /Actual         Up    Down  Sub   Sup   Up    Down  Norm  Inlet 
  Conduit               Length    Dry  Dry   Dry   Crit  Crit  Crit  Crit  Ltd   Ctrl  
  -------------------------------------------------------------------------------------
  1                       1.00   0.00  0.00  0.00  0.00  1.00  0.00  0.00  0.31  0.00
  WS02003060WS02003069    1.00   0.00  0.00  0.00  0.99  0.01  0.00  0.00  0.81  0.00
  WS02003066WSF200        1.00   0.05  0.00  0.00  0.00  0.95  0.00  0.00  0.93  0.00
  WS02003067WS02003066    1.00   0.05  0.00  0.00  0.95  0.00  0.00  0.00  0.00  0.00
  WS02003069WS02003072    1.00   0.00  0.00  0.00  0.99  0.01  0.00  0.00  0.86  0.00
  WS02003072WS02003073    1.00   0.00  0.00  0.00  0.00  0.00  0.00  1.00  0.00  0.00
  WS02004401WS02004402    1.00   0.02  0.00  0.00  0.98  0.00  0.00  0.00  0.00  0.00
  WS02004402WS02004403    1.00   0.02  0.00  0.00  0.98  0.00  0.00  0.00  0.00  0.00
  WS02004403WS02004404    1.00   0.00  0.03  0.00  0.97  0.00  0.00  0.00  0.00  0.00
  WS02004404WS02004405    1.00   0.00  0.00  0.00  1.00  0.00  0.00  0.00  0.00  0.00
  WS02004405WS02004406    1.00   0.00  0.00  0.00  1.00  0.00  0.00  0.00  0.00  0.00
  WS02004406WS02004407    1.00   0.00  0.03  0.00  0.97  0.00  0.00  0.00  0.00  0.00
  WS02004407WS02004409    1.00   0.03  0.00  0.00  0.96  0.01  0.00  0.00  0.96  0.00
  WS02004409WS02004410    1.00   0.03  0.00  0.00  0.96  0.00  0.00  0.00  0.00  0.00
  WS02004410WS02004411    1.00   0.04  0.00  0.00  0.96  0.00  0.00  0.00  0.00  0.00
  WS02004411WS02004412    1.00   0.04  0.00  0.00  0.96  0.00  0.00  0.00  0.00  0.00
  WS02004412WS02004413    1.00   0.04  0.00  0.00  0.96  0.00  0.00  0.00  0.00  0.00
  WS02004413WS02003067    1.00   0.04  0.01  0.00  0.00  0.00  0.95  0.00  0.00  0.00
  WS02006109WS02006110    1.00   0.00  0.01  0.00  0.98  0.00  0.01  0.00  0.00  0.00
  WS02006110WS02006113    1.00   0.01  0.01  0.00  0.98  0.00  0.00  0.00  0.00  0.00
  WS02006111WS02006112    1.00   0.02  0.00  0.00  0.98  0.00  0.00  0.00  0.98  0.00
  WS02006112WS02006115    1.00   0.02  0.00  0.00  0.97  0.00  0.00  0.00  0.00  0.00
  WS02006113WS02006111    1.00   0.02  0.00  0.00  0.00  0.98  0.00  0.00  0.09  0.00
  WS02006115WS02006116    1.00   0.02  0.00  0.00  0.97  0.00  0.00  0.01  0.00  0.00
  WS02006116WS02004401    1.00   0.02  0.00  0.00  0.98  0.00  0.00  0.00  0.00  0.00
  WS02006228WS02006109    1.00   0.00  0.00  0.00  1.00  0.00  0.00  0.00  0.00  0.00
  WS02006229WS02006228    1.00   0.00  0.00  0.00  0.99  0.00  0.00  0.01  0.00  0.00
  WS02006230WS02006229    1.00   0.00  0.00  0.00  0.99  0.00  0.00  0.01  0.03  0.00
  WS02006231WS02006230    1.00   0.00  0.00  0.00  0.15  0.00  0.85  0.00  0.00  0.00
  WS02006232WS02006231    1.00   0.00  0.00  0.00  0.99  0.00  0.00  0.00  0.00  0.00
  WS02006234WS02006232    1.00   0.00  0.00  0.00  1.00  0.00  0.00  0.00  0.03  0.00
  WS02006235WS02006234    1.00   0.00  0.00  0.00  0.90  0.00  0.10  0.00  0.00  0.00
  WS02006238WS02006235    1.00   0.00  0.00  0.00  1.00  0.00  0.00  0.00  0.00  0.00
  WS02006239WS02006238    1.00   0.00  0.00  0.00  1.00  0.00  0.00  0.00  0.08  0.00
  WS02006240WS02006239    1.00   0.00  0.00  0.00  0.89  0.00  0.00  0.11  0.31  0.00
  WS02006242WS02006240    1.00   0.00  0.00  0.00  0.91  0.00  0.09  0.00  0.00  0.00
  WS02006243WS02006242    1.00   0.00  0.00  0.00  0.98  0.00  0.00  0.02  0.69  0.00
  WS02006245WS02006243    1.00   0.00  0.00  0.00  0.64  0.00  0.00  0.35  0.01  0.00
  WS02006247WS02006245    1.00   0.00  0.00  0.00  0.96  0.00  0.00  0.04  0.00  0.00
  WS02006248WS02006247    1.00   0.00  0.00  0.00  0.98  0.00  0.00  0.02  0.43  0.00
  WS02006249WS02006248    1.00   0.00  0.00  0.00  0.37  0.00  0.63  0.00  0.00  0.00
  WS02006251WS02006249    1.00   0.00  0.00  0.00  0.99  0.01  0.00  0.00  0.67  0.00
  WS02006252WS02006251    1.00   0.00  0.74  0.00  0.05  0.00  0.21  0.00  0.00  0.00
  WS02006256WS02006235    1.00   0.00  0.00  0.00  0.95  0.05  0.00  0.00  0.01  0.00
  WSF200WS02003060        1.00   0.00  0.05  0.00  0.43  0.52  0.00  0.00  0.77  0.00
  YS02001580YS02001583    1.00   0.29  0.55  0.00  0.16  0.00  0.00  0.00  0.65  0.00
  YS02001583YS02001586    1.00   0.42  0.37  0.00  0.21  0.00  0.00  0.00  0.65  0.00
  YS02001586YS02001590    1.00   0.13  0.00  0.00  0.41  0.05  0.00  0.41  0.39  0.00
  YS02001590YS02001593    1.00   0.13  0.01  0.00  0.08  0.00  0.79  0.00  0.00  0.00
  YS02001593YS02001596    1.00   0.14  0.00  0.00  0.09  0.01  0.00  0.76  0.02  0.00
  YS02001596YS02001600    1.00   0.14  0.00  0.00  0.16  0.02  0.00  0.69  0.05  0.00
  YS02001600YS02001601    1.00   0.13  0.01  0.00  0.86  0.00  0.00  0.00  0.63  0.00
  YS02001601YS02001602    1.00   0.13  0.01  0.00  0.86  0.00  0.00  0.00  0.00  0.00
  YS02001602YS02001605    1.00   0.14  0.00  0.00  0.86  0.00  0.00  0.00  0.00  0.00
  YS02001605YS02001607    1.00   0.14  0.00  0.00  0.86  0.00  0.00  0.00  0.00  0.00
  YS02001607YS02001610    1.00   0.13  0.01  0.00  0.86  0.00  0.00  0.00  0.02  0.00
  YS02001610YS02001613    1.00   0.13  0.00  0.00  0.87  0.00  0.00  0.00  0.01  0.00
  YS02001613YS02001616    1.00   0.13  0.00  0.00  0.87  0.00  0.00  0.00  0.01  0.00
  YS02001616YS02001619    1.00   0.13  0.00  0.00  0.87  0.00  0.00  0.00  0.00  0.00
  YS02001619YS02001622    1.00   0.13  0.00  0.00  0.87  0.00  0.00  0.00  0.28  0.00
  YS02001622YS02001625    1.00   0.13  0.00  0.00  0.87  0.00  0.00  0.00  0.06  0.00
  YS02001625YS02001629    1.00   0.13  0.07  0.00  0.11  0.00  0.69  0.00  0.00  0.00
  YS02001629YS02163301    1.00   0.17  0.01  0.00  0.82  0.00  0.00  0.00  0.00  0.00
  YS02001633YS02163601    1.00   0.00  0.01  0.00  0.99  0.00  0.00  0.00  0.16  0.00
  YS02001641YS02001644    1.00   0.00  0.01  0.00  0.99  0.00  0.00  0.00  0.00  0.00
  YS02001644YS02001647    1.00   0.00  0.19  0.00  0.81  0.00  0.00  0.00  0.00  0.00
  YS02001647YS02001649    1.00   0.00  0.19  0.00  0.48  0.33  0.00  0.00  0.56  0.00
  YS02001649YS02001757    1.00   0.00  0.00  0.00  0.87  0.13  0.00  0.00  0.74  0.00
  YS02001652YS02001649    1.00   0.00  0.00  0.00  0.95  0.05  0.00  0.00  0.79  0.00
  YS02001655YS02001652    1.00   0.00  0.00  0.00  0.14  0.02  0.00  0.85  0.08  0.00
  YS02001658YS02001655    1.00   0.00  0.15  0.00  0.58  0.28  0.00  0.00  0.77  0.00
  YS02001661YS02001658    1.00   0.15  0.00  0.00  0.42  0.43  0.00  0.00  0.75  0.00
  YS02001664YS02001661    1.00   0.13  0.00  0.00  0.77  0.10  0.00  0.00  0.86  0.00
  YS02001745YS02001748    1.00   0.00  0.00  0.00  0.02  0.00  0.00  0.98  0.01  0.00
  YS02001748YS02001751    1.00   0.00  0.00  0.00  0.76  0.24  0.00  0.00  0.81  0.00
  YS02001751YS02001754    1.00   0.00  0.00  0.00  0.08  0.01  0.00  0.91  0.04  0.00
  YS02001754YS02001757    1.00   0.00  0.00  0.00  1.00  0.00  0.00  0.00  0.89  0.00
  YS02001757CaochengTiaoxuchi    1.00   0.00  0.00  0.00  0.04  0.96  0.00  0.00  0.08  0.00
  YS02001759YS02001757    1.00   0.00  0.00  0.00  1.00  0.00  0.00  0.00  0.68  0.00
  YS02001762YS02001759    1.00   0.00  0.00  0.00  1.00  0.00  0.00  0.00  0.08  0.00
  YS02001765YS02001762    1.00   0.00  0.00  0.00  1.00  0.00  0.00  0.00  0.75  0.00
  YS02001767YS02001765    1.00   0.00  0.00  0.00  1.00  0.00  0.00  0.00  0.00  0.00
  YS02001770YS02001767    1.00   0.00  0.00  0.00  1.00  0.00  0.00  0.00  0.00  0.00
  YS02001774YS02001770    1.00   0.00  0.14  0.00  0.70  0.00  0.16  0.00  0.04  0.00
  YS02001779YS02001774    1.00   0.00  0.00  0.00  1.00  0.00  0.00  0.00  0.83  0.00
  YS02001783YS02001784    1.00   0.00  0.20  0.00  0.80  0.00  0.00  0.00  0.55  0.00
  YS02001784YS02001785    1.00   0.00  0.00  0.00  1.00  0.00  0.00  0.00  0.19  0.00
  YS02001786YS02001788    1.00   0.00  0.00  0.00  0.79  0.21  0.00  0.00  0.00  0.00
  YS02001788YS02001790    1.00   0.00  0.00  0.00  0.23  0.77  0.00  0.00  0.84  0.00
  YS02001790YS02001791    1.00   0.00  0.00  0.00  0.01  0.99  0.00  0.00  0.15  0.00
  YS02001791YS02001793    1.00   0.00  0.00  0.00  0.00  1.00  0.00  0.00  0.01  0.00
  YS02001793JiankangQianchi    1.00   0.00  0.00  0.00  0.00  1.00  0.00  0.00  0.15  0.00
  YS02001882YS02001884    1.00   0.16  0.01  0.00  0.82  0.00  0.00  0.00  0.00  0.00
  YS02001884YS02001887    1.00   0.06  0.05  0.00  0.89  0.00  0.00  0.00  0.00  0.00
  YS02001887YS02001890    1.00   0.00  0.00  0.00  0.97  0.00  0.03  0.00  0.00  0.00
  YS02001890YS02001895    1.00   0.00  0.18  0.00  0.82  0.00  0.00  0.00  0.00  0.00
  YS02001895YS02001898    1.00   0.18  0.00  0.00  0.79  0.00  0.02  0.00  0.00  0.00
  YS02001898YS02001901    1.00   0.18  0.01  0.00  0.81  0.00  0.00  0.00  0.02  0.00
  YS02001901YS02001904    1.00   0.18  0.00  0.00  0.82  0.00  0.00  0.00  0.00  0.00
  YS02001904YS02001907    1.00   0.00  0.18  0.00  0.82  0.00  0.00  0.00  0.00  0.00
  YS02001907YS02006553    1.00   0.00  0.02  0.00  0.98  0.00  0.00  0.00  0.00  0.00
  YS02001910YS02001907    1.00   0.00  0.00  0.00  0.97  0.00  0.00  0.03  0.12  0.00
  YS02001915YS02001910    1.00   0.00  0.00  0.00  0.96  0.04  0.00  0.00  0.18  0.00
  YS02001918YS02001915    1.00   0.00  0.01  0.00  0.98  0.02  0.00  0.00  0.78  0.00
  YS02001920YS02001918    1.00   0.00  0.01  0.00  0.99  0.00  0.00  0.00  0.00  0.00
  YS02001923YS02001920    1.00   0.00  0.00  0.00  1.00  0.00  0.00  0.00  0.95  0.00
  YS02001926YS02001923    1.00   0.00  0.07  0.00  0.04  0.00  0.89  0.00  0.00  0.00
  YS02001929YS02001926    1.00   0.00  0.13  0.00  0.87  0.00  0.00  0.00  0.84  0.00
  YS02006553YS02006556    1.00   0.01  0.00  0.00  0.99  0.00  0.00  0.00  0.03  0.00
  YS02006556YS02006558    1.00   0.00  0.00  0.00  1.00  0.00  0.00  0.00  0.00  0.00
  YS02006558YS02006561    1.00   0.20  0.00  0.00  0.03  0.76  0.00  0.00  0.19  0.00
  YS02006561YS02001783    1.00   0.20  0.00  0.00  0.06  0.74  0.00  0.00  0.70  0.00
  YS02163301YS02001633    1.00   0.00  0.17  0.00  0.83  0.00  0.00  0.00  0.00  0.00
  YS02163601YS02164001    1.00   0.00  0.08  0.00  0.92  0.00  0.00  0.00  0.00  0.00
  YS02164001YS02001641    1.00   0.01  0.08  0.00  0.92  0.00  0.00  0.00  0.06  0.00
  
  
  *************************
  Conduit Surcharge Summary
  *************************
  
  ----------------------------------------------------------------------------
                                                           Hours        Hours 
                         --------- Hours Full --------   Above Full   Capacity
  Conduit                Both Ends  Upstream  Dnstream   Normal Flow   Limited
  ----------------------------------------------------------------------------
  WS02003072WS02003073        0.01      0.01      0.01      0.45         0.01
  WS02004404WS02004405        0.01      0.01      0.01      2.13         0.01
  WS02006109WS02006110        0.01      0.01      1.07      0.01         0.01
  WS02006110WS02006113        0.01      0.01      1.04      0.01         0.01
  WS02006111WS02006112        0.01      0.01      1.17      0.01         0.01
  WS02006112WS02006115        0.01      0.01      0.19      0.01         0.01
  WS02006228WS02006109        0.99      1.07      0.99      1.47         0.99
  WS02006229WS02006228        0.98      1.01      0.98      1.26         0.98
  WS02006230WS02006229        1.15      1.20      1.15      3.00         1.15
  WS02006231WS02006230        0.01      0.01      0.31      2.31         0.01
  WS02006232WS02006231        0.27      0.27      1.08      0.27         0.01
  WS02006234WS02006232        0.94      0.94      1.08      0.01         0.19
  WS02006235WS02006234        0.79      0.79      0.99      2.10         0.19
  WS02006238WS02006235        1.01      1.01      1.10      0.01         0.01
  WS02006239WS02006238        1.04      1.08      1.04      1.20         0.78
  WS02006240WS02006239        1.01      1.03      1.01      1.20         0.81
  WS02006242WS02006240        1.01      1.01      1.14      1.30         0.01
  WS02006243WS02006242        1.04      1.04      1.11      0.01         0.03
  WS02006245WS02006243        1.02      1.03      1.02      1.22         0.91
  WS02006247WS02006245        1.02      1.05      1.02      1.58         1.02
  WS02006248WS02006247        1.02      1.02      1.04      0.01         0.03
  WS02006249WS02006248        1.01      1.01      1.03      1.43         0.01
  WS02006251WS02006249        1.02      1.03      1.03      1.30         0.98
  WS02006252WS02006251        1.58      1.58      1.58      1.59         0.01
  WS02006256WS02006235        1.31      2.16      5.06      0.76         0.11
  YS02001580YS02001583        0.33      0.33      0.36      0.01         0.01
  YS02001583YS02001586        0.33      0.33      0.43      0.01         0.01
  YS02001586YS02001590        0.44      0.44      0.49      0.01         0.01
  YS02001590YS02001593        0.50      0.50      0.51      0.52         0.01
  YS02001593YS02001596        0.51      0.51      0.59      0.01         0.01
  YS02001596YS02001600        0.63      0.63      0.72      0.01         0.01
  YS02001600YS02001601        0.78      0.78      1.05      0.01         0.01
  YS02001601YS02001602        0.94      0.94      1.09      0.74         0.01
  YS02001602YS02001605        0.89      0.89      0.94      2.01         0.01
  YS02001605YS02001607        0.85      0.89      0.85      1.01         0.85
  YS02001607YS02001610        0.44      0.44      0.46      0.01         0.01
  YS02001610YS02001613        0.43      0.43      0.46      0.01         0.01
  YS02001613YS02001616        0.39      0.39      0.43      0.01         0.01
  YS02001616YS02001619        0.38      0.38      0.39      0.01         0.01
  YS02001619YS02001622        0.37      0.38      0.37      0.53         0.36
  YS02001622YS02001625        0.37      0.37      0.54      0.01         0.01
  YS02001625YS02001629        0.30      0.30      0.54      0.01         0.01
  YS02001629YS02163301        0.52      0.52      0.53      0.26         0.24
  YS02001633YS02163601        0.55      0.55      0.57      0.36         0.35
  YS02001641YS02001644        0.39      0.45      0.39      1.13         0.39
  YS02001644YS02001647        0.21      0.21      0.39      0.04         0.01
  YS02001647YS02001649        0.21      0.21      0.23      0.01         0.01
  YS02001649YS02001757        0.22      0.23      0.22      0.29         0.19
  YS02001652YS02001649        0.16      0.16      0.23      0.01         0.01
  YS02001655YS02001652        0.10      0.10      0.15      0.01         0.01
  YS02001658YS02001655        0.04      0.04      0.10      0.01         0.01
  YS02001661YS02001658        0.01      0.01      0.04      0.01         0.01
  YS02001664YS02001661        0.01      0.01      0.01      0.01         0.01
  YS02001745YS02001748        0.01      0.01      0.01      0.01         0.01
  YS02001748YS02001751        0.03      0.03      0.06      0.01         0.01
  YS02001751YS02001754        0.06      0.06      0.10      0.01         0.01
  YS02001754YS02001757        0.12      0.12      0.22      0.01         0.01
  YS02001757CaochengTiaoxuchi        0.01      0.22      0.01      0.31         0.01
  YS02001759YS02001757        0.19      0.19      0.22      0.01         0.01
  YS02001762YS02001759        0.18      0.18      0.19      0.01         0.01
  YS02001765YS02001762        0.16      0.16      0.18      0.01         0.01
  YS02001767YS02001765        0.16      0.16      0.16      0.01         0.01
  YS02001770YS02001767        0.16      0.16      0.16      0.38         0.15
  YS02001774YS02001770        0.15      0.15      0.18      0.01         0.01
  YS02001779YS02001774        0.12      0.12      0.18      0.01         0.01
  YS02001783YS02001784        0.31      0.34      0.31      0.47         0.31
  YS02001784YS02001785        0.22      0.31      0.22      0.66         0.22
  YS02001786YS02001788        0.01      0.22      0.01      0.55         0.01
  YS02001790YS02001791        0.01      0.01      0.01      0.31         0.01
  YS02001882YS02001884        0.29      0.29      0.30      0.01         0.01
  YS02001884YS02001887        0.32      0.32      0.33      0.01         0.01
  YS02001887YS02001890        0.34      0.34      0.35      0.01         0.01
  YS02001890YS02001895        0.28      0.28      0.36      0.01         0.01
  YS02001895YS02001898        0.27      0.27      0.28      0.01         0.01
  YS02001898YS02001901        0.28      0.28      0.32      0.01         0.01
  YS02001901YS02001904        0.31      0.31      0.32      0.01         0.01
  YS02001904YS02001907        0.31      0.31      0.54      0.01         0.01
  YS02001907YS02006553        0.66      0.66      0.71      0.01         0.01
  YS02001910YS02001907        0.36      0.36      0.53      0.01         0.01
  YS02001915YS02001910        0.29      0.29      0.36      0.01         0.01
  YS02001918YS02001915        0.21      0.21      0.29      0.01         0.01
  YS02001920YS02001918        0.21      0.21      0.23      0.01         0.01
  YS02001923YS02001920        0.18      0.18      0.23      0.01         0.01
  YS02001926YS02001923        0.01      0.01      0.01      0.01         0.01
  YS02001929YS02001926        0.01      0.01      0.01      0.01         0.01
  YS02006553YS02006556        0.44      0.44      0.54      0.01         0.01
  YS02006556YS02006558        0.49      0.49      0.56      0.01         0.01
  YS02006558YS02006561        0.24      0.43      0.24      0.62         0.24
  YS02006561YS02001783        0.18      0.18      0.34      0.01         0.01
  YS02163301YS02001633        0.53      0.53      0.57      0.01         0.01
  YS02163601YS02164001        0.46      0.46      0.57      0.21         0.01
  YS02164001YS02001641        0.45      0.46      0.45      0.57         0.40
  
  
  ***************
  Pumping Summary
  ***************
  
  ---------------------------------------------------------------------------------------------------------
                                                  Min       Avg       Max     Total     Power    % Time Off
                        Percent   Number of      Flow      Flow      Flow    Volume     Usage    Pump Curve
  Pump                 Utilized   Start-Ups       LPS       LPS       LPS  10^6 ltr     Kw-hr    Low   High
  ---------------------------------------------------------------------------------------------------------
  CC-R1                   20.06          44      0.00    683.00    683.00     3.906     61.17    0.0  100.0
  CC-R2                   20.06          44      0.00    683.00    683.00     3.906     61.17    0.0  100.0
  CC-S1                   20.06          44      0.00    200.00    200.00     1.144      9.65    0.0   56.7
  CC-S2                   20.06          44      0.00    200.00    200.00     1.144      9.65    0.0   56.7
  JK-R1                    8.98         985      0.00    868.79   1000.00     1.834      4.33    0.0    0.0
  JK-R2                    8.98         985      0.00    868.79   1000.00     1.834      4.33    0.0    0.0
  JK-S                     8.98         985      0.00    293.64    300.00     0.718     16.48    0.0    0.0
  

  Analysis begun on:  Wed Feb 26 11:09:39 2025
  Analysis ended on:  Wed Feb 26 11:09:41 2025
  Total elapsed time: 00:00:02