
  EPA STORM WATER MANAGEMENT MODEL - VERSION 5.2 (Build 5.2.4)
  PYSWMM TOOLKIT API - VERSION v1.0 (2023-11-27)
  ------------------------------------------------------------

  WARNING 04: minimum elevation drop used for Conduit WS02004404WS02004405
  WARNING 03: negative offset ignored for Link YS02001904YS02001907
  
  ****************
  Analysis Options
  ****************
  Flow Units ............... LPS
  Process Models:
    Rainfall/Runoff ........ YES
    RDII ................... NO
    Snowmelt ............... NO
    Groundwater ............ NO
    Flow Routing ........... YES
    Ponding Allowed ........ NO
    Water Quality .......... NO
  Infiltration Method ...... HORTON
  Flow Routing Method ...... DYNWAVE
  Surcharge Method ......... EXTRAN
  Starting Date ............ 08/28/2015 08:00:00
  Ending Date .............. 08/28/2015 16:00:00
  Antecedent Dry Days ...... 8.0
  Report Time Step ......... 00:01:00
  Wet Time Step ............ 00:01:00
  Dry Time Step ............ 00:01:00
  Routing Time Step ........ 30.00 sec
  Variable Time Step ....... YES
  Maximum Trials ........... 8
  Number of Threads ........ 4
  Head Tolerance ........... 0.001500 m
  
  
  **************************        Volume         Depth
  Runoff Quantity Continuity     hectare-m            mm
  **************************     ---------       -------
  Total Precipitation ......         3.355       101.151
  Evaporation Loss .........         0.000         0.000
  Infiltration Loss ........         0.104         3.121
  Surface Runoff ...........         3.219        97.055
  Final Storage ............         0.033         0.998
  Continuity Error (%) .....        -0.023
  
  
  **************************        Volume        Volume
  Flow Routing Continuity        hectare-m      10^6 ltr
  **************************     ---------     ---------
  Dry Weather Inflow .......         0.025         0.248
  Wet Weather Inflow .......         3.219        32.188
  Groundwater Inflow .......         0.000         0.000
  RDII Inflow ..............         0.000         0.000
  External Inflow ..........         0.083         0.825
  External Outflow .........         2.420        24.203
  Flooding Loss ............         1.250        12.498
  Evaporation Loss .........         0.000         0.000
  Exfiltration Loss ........         0.000         0.000
  Initial Stored Volume ....         0.243         2.431
  Final Stored Volume ......         0.040         0.398
  Continuity Error (%) .....        -3.946
  
  
  *************************
  Highest Continuity Errors
  *************************
  Node JK-storage (-22.70%)
  Node WS02006256 (-12.91%)
  Node YS02001583 (-7.30%)
  Node YS02001884 (5.16%)
  
  
  ***************************
  Time-Step Critical Elements
  ***************************
  Link YS02001793JiankangQianchi (43.26%)
  Link WS02006238WS02006235 (27.14%)
  Link WS02003066WSF200 (5.42%)
  Link WS02004404WS02004405 (5.25%)
  Link WS02006235WS02006234 (5.08%)
  
  
  ********************************
  Highest Flow Instability Indexes
  ********************************
  Link WS02006256WS02006235 (60)
  Link WS02006252WS02006251 (53)
  Link WS02006238WS02006235 (44)
  Link WS02006235WS02006234 (43)
  Link WS02006239WS02006238 (36)
  
  
  *********************************
  Most Frequent Nonconverging Nodes
  *********************************
  Node CC-1 (55.37%)
  Node CC-2 (55.37%)
  Node JK-1 (55.37%)
  Node JK-2 (55.37%)
  Node WSC (55.37%)
  
  
  *************************
  Routing Time Step Summary
  *************************
  Minimum Time Step           :     0.00 sec
  Average Time Step           :     2.49 sec
  Maximum Time Step           :     6.43 sec
  % of Time in Steady State   :     0.00
  Average Iterations per Step :     5.84
  % of Steps Not Converging   :    55.37
  Time Step Frequencies       :
     30.000 - 13.228 sec      :     0.00 %
     13.228 -  5.833 sec      :     5.40 %
      5.833 -  2.572 sec      :    32.57 %
      2.572 -  1.134 sec      :    39.31 %
      1.134 -  0.500 sec      :    22.72 %
  
  
  ***************************
  Subcatchment Runoff Summary
  ***************************
  
  ------------------------------------------------------------------------------------------------------------------------------
                            Total      Total      Total      Total     Imperv       Perv      Total       Total     Peak  Runoff
                           Precip      Runon       Evap      Infil     Runoff     Runoff     Runoff      Runoff   Runoff   Coeff
  Subcatchment                 mm         mm         mm         mm         mm         mm         mm    10^6 ltr      LPS
  ------------------------------------------------------------------------------------------------------------------------------
  sub60                    101.15       0.00       0.00       1.89      87.82      10.26      98.08        1.29   766.80   0.970
  sub61                    101.15       0.00       0.00       2.73      82.83      14.47      97.30        1.79  1062.15   0.962
  sub62                    101.15       0.00       0.00       1.26      91.78       6.84      98.62        2.70  1507.21   0.975
  sub63                    101.15       0.00       0.00       5.02      70.85      24.32      95.17        2.16  1192.86   0.941
  sub64                    101.15       0.00       0.00       2.54      84.78      12.63      97.41        2.34  1231.60   0.963
  sub65                    101.15       0.00       0.00       2.20      86.75      10.95      97.71        2.69  1379.93   0.966
  sub66                    101.15       0.00       0.00       6.17      70.74      23.17      93.91        4.38  1820.86   0.928
  sub67                    101.15       0.00       0.00       1.21      91.82       6.89      98.71        1.84  1154.74   0.976
  sub68                    101.15       0.00       0.00       2.26      85.81      11.90      97.71        2.69  1543.36   0.966
  sub69                    101.15       0.00       0.00       2.03      85.87      13.15      99.02        3.67  1839.08   0.979
  sub70                    101.15       0.00       0.00       6.69      66.59      27.70      94.29        2.72  1026.70   0.932
  sub71                    101.15       0.00       0.00       1.29      91.74       6.81      98.54        2.58  1335.04   0.974
  sub72                    101.15       0.00       0.00       1.15      92.67       5.94      98.61        1.36   648.24   0.975
  
  
  ******************
  Node Depth Summary
  ******************
  
  ---------------------------------------------------------------------------------
                                 Average  Maximum  Maximum  Time of Max    Reported
                                   Depth    Depth      HGL   Occurrence   Max Depth
  Node                 Type       Meters   Meters   Meters  days hr:min      Meters
  ---------------------------------------------------------------------------------
  WS02003060           JUNCTION     0.24     0.37     5.30     0  02:08        0.37
  WS02003066           JUNCTION     0.19     0.29     5.84     0  02:07        0.29
  WS02003067           JUNCTION     0.50     0.69     6.01     0  02:07        0.69
  WS02003069           JUNCTION     0.26     0.41     5.00     0  02:08        0.41
  WS02003072           JUNCTION     0.32     0.48     4.85     0  02:09        0.48
  WS02003073           JUNCTION     0.18     0.29     4.35     0  02:10        0.29
  WS02004401           JUNCTION     0.60     0.82     6.82     0  02:04        0.82
  WS02004402           JUNCTION     0.63     0.85     6.81     0  02:04        0.85
  WS02004403           JUNCTION     0.65     0.87     6.80     0  02:04        0.87
  WS02004404           JUNCTION     0.72     0.94     6.79     0  02:05        0.94
  WS02004405           JUNCTION     0.72     0.93     6.78     0  02:05        0.93
  WS02004406           JUNCTION     0.73     0.94     6.77     0  02:05        0.94
  WS02004407           JUNCTION     0.18     0.29     6.60     0  02:05        0.28
  WS02004409           JUNCTION     0.40     0.64     6.41     0  02:05        0.64
  WS02004410           JUNCTION     0.42     0.66     6.38     0  02:06        0.66
  WS02004411           JUNCTION     0.44     0.67     6.35     0  02:06        0.67
  WS02004412           JUNCTION     0.46     0.68     6.32     0  02:06        0.68
  WS02004413           JUNCTION     0.62     0.84     6.31     0  02:07        0.84
  WS02006109           JUNCTION     0.68     0.94     7.56     0  01:39        0.93
  WS02006110           JUNCTION     0.68     0.90     7.48     0  02:03        0.89
  WS02006111           JUNCTION     0.19     0.28     6.98     0  01:38        0.28
  WS02006112           JUNCTION     0.76     1.03     6.91     0  02:02        1.02
  WS02006113           JUNCTION     0.29     0.44     7.33     0  02:03        0.44
  WS02006115           JUNCTION     0.49     0.72     6.86     0  02:04        0.72
  WS02006116           JUNCTION     0.57     0.80     6.84     0  02:04        0.80
  WS02006228           JUNCTION     0.68     0.98     7.63     0  01:39        0.96
  WS02006229           JUNCTION     0.65     0.97     7.67     0  02:03        0.95
  WS02006230           JUNCTION     0.67     1.05     7.79     0  02:03        1.03
  WS02006231           JUNCTION     0.46     1.06     8.18     0  02:03        0.82
  WS02006232           JUNCTION     0.60     1.75     8.79     0  02:03        1.75
  WS02006234           JUNCTION     0.54     1.96     9.12     0  01:39        1.96
  WS02006235           JUNCTION     0.58     2.00     9.16     0  02:03        2.00
  WS02006238           JUNCTION     0.61     2.15     9.29     0  01:43        2.15
  WS02006239           JUNCTION     0.59     2.03     9.24     0  02:03        2.03
  WS02006240           JUNCTION     0.56     2.10     9.39     0  01:43        2.10
  WS02006242           JUNCTION     0.63     1.55     8.82     0  01:43        1.55
  WS02006243           JUNCTION     0.57     1.48     8.90     0  01:43        1.48
  WS02006245           JUNCTION     0.58     1.56     9.04     0  01:43        1.56
  WS02006247           JUNCTION     0.60     1.47     8.97     0  01:43        1.47
  WS02006248           JUNCTION     0.57     1.10     8.69     0  01:37        1.10
  WS02006249           JUNCTION     0.60     1.09     8.69     0  01:34        1.09
  WS02006251           JUNCTION     0.60     1.31     8.98     0  01:34        1.24
  WS02006252           JUNCTION     0.38     1.50     9.74     0  00:00        0.80
  WS02006256           JUNCTION     1.04     2.35     9.28     0  00:00        2.35
  WSF200               JUNCTION     0.17     0.28     5.51     0  02:07        0.28
  YS02001580           JUNCTION     0.23     1.05     9.59     0  01:31        1.04
  YS02001583           JUNCTION     0.27     1.14     9.64     0  01:31        0.82
  YS02001586           JUNCTION     0.41     1.13     9.30     0  01:31        1.13
  YS02001590           JUNCTION     0.54     1.40     9.26     0  01:31        1.37
  YS02001593           JUNCTION     0.47     1.35     9.21     0  01:31        1.31
  YS02001596           JUNCTION     0.63     1.80     9.22     0  01:43        1.80
  YS02001600           JUNCTION     0.74     1.87     9.00     0  01:30        1.87
  YS02001601           JUNCTION     0.93     2.06     8.90     0  01:30        2.06
  YS02001602           JUNCTION     0.81     1.87     8.77     0  01:31        1.87
  YS02001605           JUNCTION     0.75     1.78     8.68     0  01:31        1.78
  YS02001607           JUNCTION     0.69     1.68     8.53     0  01:43        1.68
  YS02001610           JUNCTION     0.73     1.68     8.48     0  01:31        1.68
  YS02001613           JUNCTION     0.69     1.68     8.53     0  01:31        1.67
  YS02001616           JUNCTION     0.63     1.61     8.52     0  01:31        1.61
  YS02001619           JUNCTION     0.61     1.61     8.54     0  01:31        1.61
  YS02001622           JUNCTION     0.59     1.62     8.52     0  01:31        1.59
  YS02001625           JUNCTION     0.83     1.78     8.38     0  01:31        1.78
  YS02001629           JUNCTION     0.74     1.85     8.40     0  01:31        1.85
  YS02001633           JUNCTION     0.81     2.08     8.53     0  01:37        2.08
  YS02001641           JUNCTION     0.76     1.97     8.41     0  01:34        1.96
  YS02001644           JUNCTION     0.74     1.92     8.35     0  01:34        1.92
  YS02001647           JUNCTION     0.51     1.83     8.44     0  01:43        1.77
  YS02001649           JUNCTION     0.57     2.05     8.44     0  01:34        2.05
  YS02001652           JUNCTION     0.45     2.16     8.76     0  01:34        2.16
  YS02001655           JUNCTION     0.34     2.20     9.05     0  01:35        1.75
  YS02001658           JUNCTION     0.25     2.30     9.44     0  01:34        1.89
  YS02001661           JUNCTION     0.24     2.46     9.86     0  01:35        1.27
  YS02001664           JUNCTION     0.11     2.31    10.23     0  01:35        0.78
  YS02001745           JUNCTION     0.13     2.35     9.87     0  01:35        0.99
  YS02001748           JUNCTION     0.22     2.27     9.35     0  01:34        2.27
  YS02001751           JUNCTION     0.28     2.20     9.08     0  01:35        2.20
  YS02001754           JUNCTION     0.38     2.20     8.81     0  01:35        2.20
  YS02001757           JUNCTION     0.58     2.21     8.47     0  01:35        2.21
  YS02001759           JUNCTION     0.52     2.21     8.57     0  01:35        2.21
  YS02001762           JUNCTION     0.51     2.15     8.55     0  01:35        2.15
  YS02001765           JUNCTION     0.49     2.10     8.55     0  01:35        2.10
  YS02001767           JUNCTION     0.48     2.03     8.52     0  01:35        2.03
  YS02001770           JUNCTION     0.49     1.95     8.44     0  01:33        1.95
  YS02001774           JUNCTION     0.55     2.02     8.44     0  01:43        2.01
  YS02001779           JUNCTION     0.37     1.68     8.37     0  01:33        1.68
  YS02001783           JUNCTION     0.43     2.40     8.54     0  01:43        2.40
  YS02001784           JUNCTION     0.42     1.94     8.01     0  01:43        1.13
  YS02001786           JUNCTION     0.35     0.98     7.01     0  01:33        0.87
  YS02001788           JUNCTION     0.25     0.63     6.60     0  01:38        0.62
  YS02001790           JUNCTION     0.30     0.73     6.37     0  01:39        0.73
  YS02001791           JUNCTION     0.18     0.44     5.91     0  01:40        0.43
  YS02001793           JUNCTION     0.11     0.26     5.09     0  01:40        0.25
  YS02001882           JUNCTION     0.54     1.83     8.55     0  01:32        1.73
  YS02001884           JUNCTION     0.62     1.93     8.55     0  01:32        1.83
  YS02001887           JUNCTION     0.70     1.94     8.48     0  01:32        1.92
  YS02001890           JUNCTION     0.72     1.81     8.32     0  01:32        1.81
  YS02001895           JUNCTION     0.50     1.61     8.36     0  01:43        1.57
  YS02001898           JUNCTION     0.51     1.77     8.51     0  01:43        1.77
  YS02001901           JUNCTION     0.62     1.69     8.30     0  01:43        1.69
  YS02001904           JUNCTION     0.60     1.65     8.28     0  01:43        1.64
  YS02001907           JUNCTION     0.90     1.96     8.25     0  01:33        1.96
  YS02001910           JUNCTION     0.73     2.05     8.55     0  01:43        2.05
  YS02001915           JUNCTION     0.56     2.00     8.72     0  01:36        2.00
  YS02001918           JUNCTION     0.37     1.81     8.88     0  01:33        1.71
  YS02001920           JUNCTION     0.45     2.13     9.14     0  01:34        1.79
  YS02001923           JUNCTION     0.30     2.03     9.29     0  01:34        1.57
  YS02001926           JUNCTION     0.30     1.90     9.35     0  01:34        1.38
  YS02001929           JUNCTION     0.20     1.78     9.47     0  01:33        1.36
  YS02006553           JUNCTION     0.90     2.19     8.47     0  01:43        2.19
  YS02006556           JUNCTION     0.87     2.39     8.70     0  01:43        2.39
  YS02006558           JUNCTION     0.92     2.50     8.77     0  01:43        2.50
  YS02006561           JUNCTION     0.28     1.19     7.85     0  01:43        0.91
  YS02163301           JUNCTION     0.76     1.96     8.48     0  01:37        1.96
  YS02163601           JUNCTION     0.83     2.08     8.48     0  01:43        2.08
  YS02164001           JUNCTION     0.75     2.09     8.55     0  01:43        2.09
  CC-1                 OUTFALL      0.00     0.00     0.00     0  00:00        0.00
  CC-2                 OUTFALL      0.00     0.00     0.00     0  00:00        0.00
  JK-1                 OUTFALL      0.00     0.00     0.00     0  00:00        0.00
  JK-2                 OUTFALL      0.00     0.00     0.00     0  00:00        0.00
  WSC                  OUTFALL      0.18     0.29     0.96     0  02:10        0.29
  CC-storage           STORAGE      0.48     1.30     6.80     0  02:37        1.30
  JK-storage           STORAGE      0.02     2.99     3.79     0  00:00        0.68
  
  
  *******************
  Node Inflow Summary
  *******************
  
  -------------------------------------------------------------------------------------------------
                                  Maximum  Maximum                  Lateral       Total        Flow
                                  Lateral    Total  Time of Max      Inflow      Inflow     Balance
                                   Inflow   Inflow   Occurrence      Volume      Volume       Error
  Node                 Type           LPS      LPS  days hr:min    10^6 ltr    10^6 ltr     Percent
  -------------------------------------------------------------------------------------------------
  WS02003060           JUNCTION     16.53   516.32     0  02:07       0.471        5.15       0.044
  WS02003066           JUNCTION      0.00   499.62     0  02:07           0        4.68       0.032
  WS02003067           JUNCTION      0.00   499.53     0  02:07           0        4.69       0.090
  WS02003069           JUNCTION      0.32   516.43     0  02:08     0.00912        5.16       0.083
  WS02003072           JUNCTION      0.00   516.08     0  02:09           0        5.15       0.149
  WS02003073           JUNCTION      1.82   517.73     0  02:09      0.0519         5.2       0.114
  WS02004401           JUNCTION      0.00   502.26     0  02:04           0        4.79       0.222
  WS02004402           JUNCTION      0.00   501.93     0  02:04           0        4.78       0.224
  WS02004403           JUNCTION      0.00   501.80     0  02:04           0        4.77       0.218
  WS02004404           JUNCTION      0.16   501.52     0  02:05     0.00462        4.76       0.181
  WS02004405           JUNCTION      0.04   501.60     0  02:05     0.00109        4.76       0.266
  WS02004406           JUNCTION      0.00   501.72     0  02:05           0        4.74       0.451
  WS02004407           JUNCTION      0.00   500.95     0  02:05           0        4.72       0.025
  WS02004409           JUNCTION      0.00   500.50     0  02:05           0        4.72       0.061
  WS02004410           JUNCTION      0.00   500.32     0  02:06           0        4.72       0.101
  WS02004411           JUNCTION      0.00   500.08     0  02:06           0        4.71       0.125
  WS02004412           JUNCTION      0.00   500.00     0  02:06           0        4.71       0.165
  WS02004413           JUNCTION      0.00   499.98     0  02:06           0         4.7       0.304
  WS02006109           JUNCTION      1.23   506.99     0  02:03      0.0351        4.84       0.202
  WS02006110           JUNCTION      0.00   507.19     0  02:03           0        4.83       0.151
  WS02006111           JUNCTION      0.00   521.13     0  02:03           0        4.82       0.027
  WS02006112           JUNCTION      0.00   505.44     0  01:38           0        4.82       0.431
  WS02006113           JUNCTION      0.00   505.06     0  02:03           0        4.83       0.037
  WS02006115           JUNCTION      0.00   510.03     0  02:03           0         4.8       0.154
  WS02006116           JUNCTION      0.00   502.78     0  02:04           0        4.79       0.068
  WS02006228           JUNCTION      0.00   506.19     0  02:03           0        4.81       0.091
  WS02006229           JUNCTION      0.00   505.26     0  02:03           0        4.82       0.105
  WS02006230           JUNCTION     10.28   541.78     0  02:03       0.293        4.82       0.123
  WS02006231           JUNCTION      0.00   522.18     0  02:03           0        4.53       0.068
  WS02006232           JUNCTION      0.00   520.70     0  02:03           0        4.54       0.168
  WS02006234           JUNCTION      0.00   516.75     0  02:03           0        4.53      -0.280
  WS02006235           JUNCTION      0.00   517.33     0  01:35           0        4.71       0.095
  WS02006238           JUNCTION      0.00   420.74     0  02:40           0           4       0.206
  WS02006239           JUNCTION      0.00   419.16     0  02:37           0        3.85      -0.073
  WS02006240           JUNCTION      0.00   415.25     0  02:37           0        3.81      -0.071
  WS02006242           JUNCTION      0.00   415.78     0  02:37           0        3.81      -0.017
  WS02006243           JUNCTION      0.00   415.54     0  02:37           0        3.81      -0.108
  WS02006245           JUNCTION      0.00   416.32     0  01:30           0        3.82       0.341
  WS02006247           JUNCTION      0.00   416.71     0  01:30           0        3.82      -0.028
  WS02006248           JUNCTION      0.00   416.04     0  02:40           0        3.82      -0.059
  WS02006249           JUNCTION      0.00   459.02     0  00:00           0        3.87       0.512
  WS02006251           JUNCTION      0.08   405.42     0  01:29     0.00219        3.87       0.009
  WS02006252           JUNCTION      0.00   400.00     0  00:00           0        3.86      -0.264
  WS02006256           JUNCTION      0.00   300.00     0  00:00           0        1.03     -11.436
  WSF200               JUNCTION      0.00   499.59     0  02:07           0        4.68       0.011
  YS02001580           JUNCTION      0.00   127.53     0  01:31           0     0.00432      -0.598
  YS02001583           JUNCTION      0.00   213.69     0  01:31           0      0.0151      -6.802
  YS02001586           JUNCTION   1026.70  1026.70     0  01:42        2.72        2.74       0.060
  YS02001590           JUNCTION      0.00   324.85     0  01:43           0        1.77      -0.028
  YS02001593           JUNCTION      0.00   318.96     0  01:43           0        1.78       0.020
  YS02001596           JUNCTION      0.00   317.87     0  01:43           0        1.77      -0.001
  YS02001600           JUNCTION      0.00   318.09     0  02:05           0        1.77       0.016
  YS02001601           JUNCTION   1839.08  2156.59     0  01:40        3.66        5.44       0.017
  YS02001602           JUNCTION      0.00   560.42     0  01:31           0        2.86       0.018
  YS02001605           JUNCTION      0.00   560.39     0  01:31           0        2.69       0.024
  YS02001607           JUNCTION      0.00   560.33     0  01:31           0        2.69       0.074
  YS02001610           JUNCTION      0.00   949.21     0  01:43           0        3.37       0.074
  YS02001613           JUNCTION      0.00   611.72     0  01:43           0        2.63       0.061
  YS02001616           JUNCTION      0.00   614.43     0  01:43           0        2.63       0.019
  YS02001619           JUNCTION   1820.86  1820.86     0  01:42        4.38        6.33       0.002
  YS02001622           JUNCTION      0.00  1053.65     0  01:44           0        5.59      -0.003
  YS02001625           JUNCTION      0.00  1504.13     0  01:46           0        5.97       0.160
  YS02001629           JUNCTION      0.00   951.35     0  01:31           0        4.66       0.005
  YS02001633           JUNCTION   1380.13  1425.08     0  01:33         2.7        6.79       0.052
  YS02001641           JUNCTION      0.00  1423.28     0  01:33           0        6.23       0.048
  YS02001644           JUNCTION   1231.63  1938.60     0  01:39        2.34        8.57       0.039
  YS02001647           JUNCTION      0.00  1887.09     0  01:33           0        7.44       0.007
  YS02001649           JUNCTION      0.00  2140.93     0  01:33           0         9.6       0.007
  YS02001652           JUNCTION      0.00  1203.54     0  01:38           0        2.16      -0.101
  YS02001655           JUNCTION      0.15  1203.57     0  01:38     0.00439        2.16       0.024
  YS02001658           JUNCTION      0.00  1202.94     0  01:38           0        2.16      -0.038
  YS02001661           JUNCTION      0.00  1202.47     0  01:38           0        2.16      -0.006
  YS02001664           JUNCTION   1192.86  1192.86     0  01:39        2.16        2.16      -0.035
  YS02001745           JUNCTION    766.80   766.80     0  01:39        1.29        1.29       0.088
  YS02001748           JUNCTION      0.04   774.04     0  01:38     0.00128        1.29      -0.224
  YS02001751           JUNCTION      0.01   809.26     0  01:43    0.000313         1.3       0.059
  YS02001754           JUNCTION      0.26   774.37     0  01:38     0.00741        1.32      -0.072
  YS02001757           JUNCTION      0.00  3679.25     0  01:43           0        14.8       0.039
  YS02001759           JUNCTION   1062.19  1490.70     0  01:34        1.79        3.92      -0.000
  YS02001762           JUNCTION      0.00   846.51     0  01:34           0        2.13      -0.004
  YS02001765           JUNCTION      0.00   845.83     0  01:34           0        2.13       0.010
  YS02001767           JUNCTION      0.54   847.18     0  01:35      0.0152        2.13       0.013
  YS02001770           JUNCTION   1507.37  1507.37     0  01:39        2.71        2.75      -0.010
  YS02001774           JUNCTION      0.00   851.23     0  01:41           0       0.591       0.205
  YS02001779           JUNCTION      0.01   851.23     0  01:41    0.000142       0.545      -0.068
  YS02001783           JUNCTION      0.00  1174.04     0  01:37           0         5.4       0.006
  YS02001784           JUNCTION      1.06  1175.28     0  01:37      0.0302        5.43       0.011
  YS02001786           JUNCTION      0.06  1176.06     0  01:37      0.0016        5.43       0.011
  YS02001788           JUNCTION      0.07  1176.72     0  01:37     0.00202        5.43       0.005
  YS02001790           JUNCTION      0.15  1184.45     0  01:38     0.00442        5.43      -0.002
  YS02001791           JUNCTION      0.00  1295.89     0  01:40           0        5.43      -0.001
  YS02001793           JUNCTION      0.00  1254.93     0  01:40           0        5.43       0.005
  YS02001882           JUNCTION      0.00    66.32     0  01:32           0      0.0136       4.584
  YS02001884           JUNCTION      0.00   117.37     0  01:31           0      0.0503       5.437
  YS02001887           JUNCTION   1155.19  1155.22     0  01:38        1.85        1.88       0.237
  YS02001890           JUNCTION      0.00  1155.28     0  01:38           0        1.84       0.279
  YS02001895           JUNCTION      0.00   535.13     0  01:43           0        1.52       0.121
  YS02001898           JUNCTION      0.00   522.04     0  01:33           0        1.52       0.005
  YS02001901           JUNCTION      0.00   521.34     0  01:33           0        1.52       0.229
  YS02001904           JUNCTION      0.00   520.90     0  01:33           0        1.52       0.187
  YS02001907           JUNCTION      0.00  2855.97     0  01:39           0        5.65       0.320
  YS02001910           JUNCTION      0.00  1982.52     0  01:40           0        4.01       0.182
  YS02001915           JUNCTION   1335.06  1982.68     0  01:40        2.58        4.06       0.040
  YS02001918           JUNCTION      0.00   651.82     0  01:41           0        1.52       0.014
  YS02001920           JUNCTION      2.87   652.00     0  01:41      0.0818         1.5       0.067
  YS02001923           JUNCTION      0.04   648.80     0  01:41     0.00107         1.4      -0.033
  YS02001926           JUNCTION      0.05   873.02     0  01:33     0.00149        1.38      -0.033
  YS02001929           JUNCTION    648.24   744.54     0  01:33        1.36        1.36      -0.029
  YS02006553           JUNCTION      0.00   790.30     0  02:09           0        2.99       0.399
  YS02006556           JUNCTION      0.00   790.48     0  02:09           0           3       0.274
  YS02006558           JUNCTION   1544.24  1544.24     0  01:39        2.71        5.56       0.062
  YS02006561           JUNCTION      0.00  1173.23     0  01:37           0         5.4      -0.002
  YS02163301           JUNCTION      0.00   924.02     0  02:15           0        4.65       0.037
  YS02163601           JUNCTION      0.11  1424.61     0  01:33     0.00313        6.23       0.083
  YS02164001           JUNCTION      0.00  1424.13     0  01:33           0        6.23       0.040
  CC-1                 OUTFALL       0.00   683.00     0  00:00           0        6.58       0.000
  CC-2                 OUTFALL       0.00   683.00     0  00:00           0        6.58       0.000
  JK-1                 OUTFALL       0.00  1000.00     0  00:00           0        2.92       0.000
  JK-2                 OUTFALL       0.00  1000.00     0  00:00           0        2.92       0.000
  WSC                  OUTFALL       0.00   517.59     0  02:10           0        5.19       0.000
  CC-storage           STORAGE       0.00  3467.89     0  01:46           0          17      -0.305
  JK-storage           STORAGE       0.00  1308.67     0  01:40           0        5.58     -18.503
  
  
  **********************
  Node Surcharge Summary
  **********************
  
  Surcharging occurs when water rises above the top of the highest conduit.
  ---------------------------------------------------------------------
                                               Max. Height   Min. Depth
                                   Hours       Above Crown    Below Rim
  Node                 Type      Surcharged         Meters       Meters
  ---------------------------------------------------------------------
  WS02006109           JUNCTION        2.26          0.118        1.702
  WS02006112           JUNCTION        0.57          0.025        1.655
  WS02006228           JUNCTION        2.24          0.145        2.055
  WS02006229           JUNCTION        2.27          0.173        2.277
  WS02006231           JUNCTION        0.70          0.352        1.178
  WS02006232           JUNCTION        2.34          1.052        0.428
  WS02006234           JUNCTION        1.80          1.240        0.000
  WS02006235           JUNCTION        2.27          1.290        0.000
  WS02006238           JUNCTION        2.31          1.430        0.000
  WS02006239           JUNCTION        2.27          1.290        0.000
  WS02006240           JUNCTION        2.27          1.390        0.000
  WS02006242           JUNCTION        2.37          0.820        0.000
  WS02006243           JUNCTION        2.29          0.770        0.000
  WS02006245           JUNCTION        2.28          0.850        0.000
  WS02006247           JUNCTION        2.30          0.760        0.000
  WS02006248           JUNCTION        2.27          0.380        0.000
  WS02006249           JUNCTION        2.29          0.390        0.000
  WS02006251           JUNCTION        0.99          0.279        0.901
  WS02006252           JUNCTION        2.67          1.100        0.000
  WS02006256           JUNCTION        6.82          2.050        0.000
  YS02001580           JUNCTION        1.00          0.450        0.000
  YS02001583           JUNCTION        1.01          0.500        0.000
  YS02001586           JUNCTION        1.13          0.510        0.000
  YS02001590           JUNCTION        1.22          0.750        0.000
  YS02001593           JUNCTION        1.23          0.730        0.110
  YS02001596           JUNCTION        1.36          1.070        0.000
  YS02001600           JUNCTION        1.59          1.190        0.000
  YS02001601           JUNCTION        1.82          1.440        0.000
  YS02001602           JUNCTION        1.74          1.270        0.000
  YS02001605           JUNCTION        1.71          1.180        0.000
  YS02001607           JUNCTION        1.14          0.680        0.000
  YS02001610           JUNCTION        1.18          0.680        0.000
  YS02001613           JUNCTION        1.13          0.684        0.016
  YS02001616           JUNCTION        1.07          0.610        0.000
  YS02001619           JUNCTION        1.06          0.610        0.000
  YS02001622           JUNCTION        1.05          0.620        0.000
  YS02001625           JUNCTION        1.30          0.780        0.000
  YS02001629           JUNCTION        0.92          0.470        0.000
  YS02001633           JUNCTION        1.30          1.060        0.000
  YS02001641           JUNCTION        1.17          0.970        0.130
  YS02001644           JUNCTION        1.11          0.920        0.000
  YS02001647           JUNCTION        0.80          0.830        0.070
  YS02001649           JUNCTION        0.93          1.050        0.000
  YS02001652           JUNCTION        0.63          1.130        0.000
  YS02001655           JUNCTION        0.43          1.200        0.000
  YS02001658           JUNCTION        0.31          1.300        0.000
  YS02001661           JUNCTION        0.16          1.390        0.000
  YS02001664           JUNCTION        0.01          1.310        0.000
  YS02001745           JUNCTION        0.01          1.350        0.000
  YS02001748           JUNCTION        0.20          1.190        0.000
  YS02001751           JUNCTION        0.33          1.200        0.000
  YS02001754           JUNCTION        0.44          1.150        0.000
  YS02001757           JUNCTION        0.98          1.210        0.000
  YS02001759           JUNCTION        0.82          1.210        0.000
  YS02001762           JUNCTION        0.78          1.150        0.000
  YS02001765           JUNCTION        0.72          1.100        0.000
  YS02001767           JUNCTION        0.66          1.030        0.000
  YS02001770           JUNCTION        0.62          0.920        0.000
  YS02001774           JUNCTION        0.76          1.016        0.034
  YS02001779           JUNCTION        0.46          0.680        0.000
  YS02001783           JUNCTION        0.84          1.600        0.000
  YS02001784           JUNCTION        0.80          1.145        0.345
  YS02001786           JUNCTION        0.68          0.179        1.251
  YS02001882           JUNCTION        0.76          0.830        0.000
  YS02001884           JUNCTION        0.77          0.870        0.000
  YS02001887           JUNCTION        0.82          0.888        0.062
  YS02001890           JUNCTION        0.84          0.760        0.000
  YS02001895           JUNCTION        0.75          0.614        0.136
  YS02001898           JUNCTION        0.74          0.740        0.000
  YS02001901           JUNCTION        0.80          0.692        0.178
  YS02001904           JUNCTION        0.79          0.652        0.198
  YS02001907           JUNCTION        1.09          0.950        0.000
  YS02001910           JUNCTION        0.87          1.048        0.052
  YS02001915           JUNCTION        0.76          1.000        0.000
  YS02001918           JUNCTION        0.66          0.810        0.000
  YS02001920           JUNCTION        0.67          1.135        0.005
  YS02001923           JUNCTION        0.26          0.820        0.000
  YS02001926           JUNCTION        0.29          0.900        0.000
  YS02001929           JUNCTION        0.14          0.780        0.000
  YS02006553           JUNCTION        1.15          1.190        0.000
  YS02006556           JUNCTION        0.98          1.350        0.000
  YS02006558           JUNCTION        0.97          1.400        0.000
  YS02006561           JUNCTION        0.62          0.386        0.764
  YS02163301           JUNCTION        1.28          0.959        0.071
  YS02163601           JUNCTION        1.34          1.080        0.000
  YS02164001           JUNCTION        1.19          1.095        0.005
  
  
  *********************
  Node Flooding Summary
  *********************
  
  Flooding refers to all water that overflows a node, whether it ponds or not.
  --------------------------------------------------------------------------
                                                             Total   Maximum
                                 Maximum   Time of Max       Flood    Ponded
                        Hours       Rate    Occurrence      Volume     Depth
  Node                 Flooded       LPS   days hr:min    10^6 ltr    Meters
  --------------------------------------------------------------------------
  WS02006234              0.01      8.53      0  02:40       0.000     0.000
  WS02006235              0.01      8.68      0  02:03       0.000     0.000
  WS02006238              0.01      6.68      0  02:03       0.000     0.000
  WS02006239              0.01      2.02      0  02:03       0.000     0.000
  WS02006240              0.01      1.37      0  01:43       0.000     0.000
  WS02006242              0.01      1.89      0  02:40       0.000     0.000
  WS02006243              0.01      0.81      0  01:43       0.000     0.000
  WS02006245              0.01      0.59      0  01:43       0.000     0.000
  WS02006247              0.01      0.19      0  01:43       0.000     0.000
  WS02006248              0.01     23.40      0  02:03       0.000     0.000
  WS02006249              0.75     48.84      0  01:35       0.030     0.000
  WS02006252              0.01    246.97      0  01:27       0.001     0.000
  WS02006256              1.00    293.19      0  00:00       0.424     0.000
  YS02001580              0.01     83.98      0  01:31       0.000     0.000
  YS02001583              0.01    139.71      0  01:31       0.000     0.000
  YS02001586              0.83    709.03      0  01:42       0.948     0.000
  YS02001590              0.01      5.73      0  01:43       0.000     0.000
  YS02001596              0.01      0.20      0  01:43       0.000     0.000
  YS02001600              0.01      2.06      0  01:43       0.000     0.000
  YS02001601              1.02   1758.71      0  01:40       2.581     0.000
  YS02001602              0.82     61.93      0  02:03       0.166     0.000
  YS02001605              0.01      3.88      0  01:43       0.000     0.000
  YS02001607              0.01      0.21      0  01:43       0.000     0.000
  YS02001610              0.72    949.13      0  01:43       1.421     0.000
  YS02001616              0.15      6.06      0  01:31       0.000     0.000
  YS02001619              0.15    160.29      0  01:41       0.052     0.000
  YS02001622              0.01    185.12      0  01:31       0.000     0.000
  YS02001625              0.63   1504.08      0  01:46       1.852     0.000
  YS02001629              0.24    429.59      0  01:37       0.193     0.000
  YS02001633              0.01      0.71      0  01:37       0.000     0.000
  YS02001644              0.29   1937.96      0  01:39       1.122     0.000
  YS02001649              0.02    245.98      0  01:35       0.006     0.000
  YS02001652              0.01     76.28      0  01:34       0.000     0.000
  YS02001655              0.01     70.31      0  01:35       0.000     0.000
  YS02001658              0.01    389.51      0  01:34       0.001     0.000
  YS02001661              0.01    227.66      0  01:35       0.000     0.000
  YS02001664              0.01    195.57      0  01:35       0.000     0.000
  YS02001745              0.01     80.88      0  01:35       0.000     0.000
  YS02001748              0.01    469.59      0  01:35       0.001     0.000
  YS02001751              0.01     47.19      0  01:35       0.000     0.000
  YS02001754              0.01     89.94      0  01:35       0.000     0.000
  YS02001757              0.01    180.20      0  01:43       0.001     0.000
  YS02001759              0.01     49.06      0  01:43       0.000     0.000
  YS02001762              0.01     60.61      0  01:43       0.000     0.000
  YS02001765              0.01     96.00      0  01:43       0.000     0.000
  YS02001767              0.01     29.52      0  01:43       0.000     0.000
  YS02001770              0.12    273.47      0  01:38       0.067     0.000
  YS02001779              0.27    851.11      0  01:41       0.521     0.000
  YS02001783              0.01      0.34      0  01:43       0.000     0.000
  YS02001882              0.01     32.89      0  01:32       0.000     0.000
  YS02001884              0.01     15.33      0  01:32       0.000     0.000
  YS02001890              0.29    637.90      0  01:38       0.318     0.000
  YS02001898              0.01      0.13      0  01:43       0.000     0.000
  YS02001907              0.59   2855.70      0  01:39       2.786     0.000
  YS02001915              0.01      4.09      0  01:36       0.000     0.000
  YS02001918              0.01    173.84      0  01:34       0.003     0.000
  YS02001923              0.01    165.63      0  01:34       0.001     0.000
  YS02001926              0.01    698.27      0  01:34       0.005     0.000
  YS02001929              0.01    411.51      0  01:33       0.001     0.000
  YS02006553              0.01      0.63      0  01:43       0.000     0.000
  YS02006556              0.01      0.05      0  01:43       0.000     0.000
  YS02006558              0.01     42.98      0  01:43       0.000     0.000
  YS02163601              0.01      0.15      0  01:43       0.000     0.000
  
  
  **********************
  Storage Volume Summary
  **********************
  
  ------------------------------------------------------------------------------------------------
                         Average    Avg   Evap  Exfil     Maximum    Max    Time of Max    Maximum
                          Volume   Pcnt   Pcnt   Pcnt      Volume   Pcnt     Occurrence    Outflow
  Storage Unit           1000 m³   Full   Loss   Loss     1000 m³   Full    days hr:min        LPS
  ------------------------------------------------------------------------------------------------
  CC-storage               1.324   20.7    0.0    0.0       3.619   56.5       0  02:37    1783.53
  JK-storage               0.001    0.3    0.0    0.0       0.150   51.6       0  00:00    2300.00
  
  
  ***********************
  Outfall Loading Summary
  ***********************
  
  -----------------------------------------------------------
                         Flow       Avg       Max       Total
                         Freq      Flow      Flow      Volume
  Outfall Node           Pcnt       LPS       LPS    10^6 ltr
  -----------------------------------------------------------
  CC-1                  59.12    683.00    683.00       6.585
  CC-2                  59.12    683.00    683.00       6.585
  JK-1                  21.45    932.44   1000.00       2.921
  JK-2                  21.45    932.44   1000.00       2.921
  WSC                   99.95    263.79    517.59       5.192
  -----------------------------------------------------------
  System                52.22   3494.67   3883.59      24.203
  
  
  ********************
  Link Flow Summary
  ********************
  
  -----------------------------------------------------------------------------
                                 Maximum  Time of Max   Maximum    Max/    Max/
                                  |Flow|   Occurrence   |Veloc|    Full    Full
  Link                 Type          LPS  days hr:min     m/sec    Flow   Depth
  -----------------------------------------------------------------------------
  1                    CONDUIT    517.59     0  02:10      2.77    0.18    0.29
  WS02003060WS02003069 CONDUIT    516.11     0  02:08      1.61    0.20    0.33
  WS02003066WSF200     CONDUIT    499.59     0  02:07      2.80    0.08    0.21
  WS02003067WS02003066 CONDUIT    499.62     0  02:07      1.16    0.16    0.41
  WS02003069WS02003072 CONDUIT    516.08     0  02:09      1.34    0.25    0.37
  WS02003072WS02003073 CONDUIT    515.91     0  02:09      1.40    1.11    0.36
  WS02004401WS02004402 CONDUIT    501.93     0  02:04      1.22    0.60    0.84
  WS02004402WS02004403 CONDUIT    501.80     0  02:04      1.24    0.72    0.86
  WS02004403WS02004404 CONDUIT    501.36     0  02:05      1.24    0.36    0.90
  WS02004404WS02004405 CONDUIT    501.56     0  02:05      1.45    4.91    0.94
  WS02004405WS02004406 CONDUIT    501.72     0  02:05      1.46    0.99    0.93
  WS02004406WS02004407 CONDUIT    500.95     0  02:05      1.00    0.22    0.61
  WS02004407WS02004409 CONDUIT    500.50     0  02:05      1.59    0.18    0.46
  WS02004409WS02004410 CONDUIT    500.32     0  02:06      1.06    0.65    0.65
  WS02004410WS02004411 CONDUIT    500.08     0  02:06      1.12    0.68    0.66
  WS02004411WS02004412 CONDUIT    500.00     0  02:06      1.22    0.71    0.67
  WS02004412WS02004413 CONDUIT    499.98     0  02:06      1.22    0.33    0.76
  WS02004413WS02003067 CONDUIT    499.53     0  02:07      1.07    0.21    0.58
  WS02006109WS02006110 CONDUIT    507.19     0  02:03      1.01    0.98    0.99
  WS02006110WS02006113 CONDUIT    505.06     0  02:03      1.21    0.46    0.77
  WS02006111WS02006112 CONDUIT    505.44     0  01:38      1.95    0.24    0.67
  WS02006112WS02006115 CONDUIT    510.03     0  02:03      0.82    0.30    0.85
  WS02006113WS02006111 CONDUIT    521.13     0  02:03      2.40    0.62    0.45
  WS02006115WS02006116 CONDUIT    502.78     0  02:04      1.29    0.65    0.73
  WS02006116WS02004401 CONDUIT    502.26     0  02:04      1.21    0.69    0.81
  WS02006228WS02006109 CONDUIT    505.76     0  02:03      1.06    2.21    1.00
  WS02006229WS02006228 CONDUIT    506.19     0  02:03      1.12    1.68    1.00
  WS02006230WS02006229 CONDUIT    505.26     0  02:03      1.31   11.24    1.00
  WS02006231WS02006230 CONDUIT    531.50     0  02:03      1.44    8.06    0.98
  WS02006232WS02006231 CONDUIT    522.18     0  02:03      1.36    1.09    1.00
  WS02006234WS02006232 CONDUIT    520.70     0  02:03      1.39    1.05    1.00
  WS02006235WS02006234 CONDUIT    516.75     0  02:03      1.34    5.45    1.00
  WS02006238WS02006235 CONDUIT    431.01     0  02:40      1.45    0.96    1.00
  WS02006239WS02006238 CONDUIT    420.74     0  02:40      1.11    1.35    1.00
  WS02006240WS02006239 CONDUIT    419.16     0  02:37      1.24    1.32    1.00
  WS02006242WS02006240 CONDUIT    415.25     0  02:37      1.16    1.65    1.00
  WS02006243WS02006242 CONDUIT    415.78     0  02:37      1.38    0.89    1.00
  WS02006245WS02006243 CONDUIT    415.54     0  02:37      1.44    1.23    1.00
  WS02006247WS02006245 CONDUIT    416.32     0  01:30      1.43    3.30    1.00
  WS02006248WS02006247 CONDUIT    416.71     0  01:30      1.42    0.91    1.00
  WS02006249WS02006248 CONDUIT    416.04     0  02:40      1.37    2.28    1.00
  WS02006251WS02006249 CONDUIT    459.02     0  00:00      2.06    1.32    1.00
  WS02006252WS02006251 CONDUIT    405.34     0  01:29     25.03    1.49    1.00
  WS02006256WS02006235 CONDUIT    288.91     0  00:00      4.23    3.06    1.00
  WSF200WS02003060     CONDUIT    499.79     0  02:07      2.02    0.11    0.27
  YS02001580YS02001583 CONDUIT    127.53     0  01:31      0.79    0.49    1.00
  YS02001583YS02001586 CONDUIT    180.12     0  01:31      0.78    0.27    1.00
  YS02001586YS02001590 CONDUIT    324.85     0  01:43      1.28    0.57    1.00
  YS02001590YS02001593 CONDUIT    318.96     0  01:43      1.13    2.00    1.00
  YS02001593YS02001596 CONDUIT    317.87     0  01:43      1.75    0.50    1.00
  YS02001596YS02001600 CONDUIT    318.09     0  02:05      1.25    0.62    1.00
  YS02001600YS02001601 CONDUIT    318.42     0  01:43      1.13    0.55    1.00
  YS02001601YS02001602 CONDUIT    560.42     0  01:31      1.98    2.02    1.00
  YS02001602YS02001605 CONDUIT    560.39     0  01:31      1.98   11.86    1.00
  YS02001605YS02001607 CONDUIT    560.33     0  01:31      1.98    3.07    1.00
  YS02001607YS02001610 CONDUIT    549.78     0  01:31      0.70    0.52    1.00
  YS02001610YS02001613 CONDUIT    612.17     0  01:43      0.78    0.71    1.00
  YS02001613YS02001616 CONDUIT    611.72     0  01:43      0.78    0.52    1.00
  YS02001616YS02001619 CONDUIT    614.43     0  01:43      0.78    1.07    1.00
  YS02001619YS02001622 CONDUIT   1053.65     0  01:44      1.34    1.55    1.00
  YS02001622YS02001625 CONDUIT   1053.50     0  01:45      1.34    0.56    1.00
  YS02001625YS02001629 CONDUIT    951.35     0  01:31      1.21    0.45    1.00
  YS02001629YS02163301 CONDUIT    924.02     0  02:15      1.18    1.14    1.00
  YS02001633YS02163601 CONDUIT   1424.50     0  01:33      1.81    1.50    1.00
  YS02001641YS02001644 CONDUIT   1423.90     0  01:33      1.81    4.60    1.00
  YS02001644YS02001647 CONDUIT   1887.09     0  01:33      2.41    1.11    1.00
  YS02001647YS02001649 CONDUIT   1876.51     0  01:33      2.39    0.99    1.00
  YS02001649YS02001757 CONDUIT   2137.70     0  01:33      2.72    1.30    1.00
  YS02001652YS02001649 CONDUIT   1203.54     0  01:38      1.53    0.60    1.00
  YS02001655YS02001652 CONDUIT   1203.54     0  01:38      1.53    0.58    1.00
  YS02001658YS02001655 CONDUIT   1203.42     0  01:38      1.98    0.51    1.00
  YS02001661YS02001658 CONDUIT   1202.94     0  01:38      2.40    0.47    1.00
  YS02001664YS02001661 CONDUIT   1202.47     0  01:38      2.46    0.38    1.00
  YS02001745YS02001748 CONDUIT    774.00     0  01:38      2.31    0.30    1.00
  YS02001748YS02001751 CONDUIT    809.25     0  01:43      1.81    0.41    1.00
  YS02001751YS02001754 CONDUIT    774.11     0  01:38      1.52    0.37    1.00
  YS02001754YS02001757 CONDUIT    774.73     0  01:38      0.99    0.31    1.00
  YS02001757CaochengTiaoxuchi CONDUIT   3467.89     0  01:46      7.46    1.50    1.00
  YS02001759YS02001757 CONDUIT   1489.10     0  01:34      1.90    1.06    1.00
  YS02001762YS02001759 CONDUIT    847.46     0  01:34      1.08    0.98    1.00
  YS02001765YS02001762 CONDUIT    846.51     0  01:34      1.08    0.79    1.00
  YS02001767YS02001765 CONDUIT    845.83     0  01:34      1.08    1.06    1.00
  YS02001770YS02001767 CONDUIT    846.65     0  01:35      1.08    3.35    1.00
  YS02001774YS02001770 CONDUIT    851.23     0  01:41      1.08    0.54    1.00
  YS02001779YS02001774 CONDUIT    851.23     0  01:41      1.08    0.43    1.00
  YS02001783YS02001784 CONDUIT   1174.22     0  01:37      2.34    1.62    1.00
  YS02001784YS02001785 CONDUIT   1176.01     0  01:37      2.34    2.74    1.00
  YS02001786YS02001788 CONDUIT   1176.65     0  01:37      2.50    2.27    0.89
  YS02001788YS02001790 CONDUIT   1184.29     0  01:38      2.73    0.87    0.84
  YS02001790YS02001791 CONDUIT   1295.89     0  01:40      3.43    1.41    0.71
  YS02001791YS02001793 CONDUIT   1254.93     0  01:40      6.41    0.54    0.43
  YS02001793JiankangQianchi CONDUIT   1308.67     0  01:40     24.58    0.10    0.50
  YS02001882YS02001884 CONDUIT     66.32     0  01:32      0.19    0.08    1.00
  YS02001884YS02001887 CONDUIT    117.37     0  01:31      0.15    0.16    1.00
  YS02001887YS02001890 CONDUIT   1155.28     0  01:38      1.47    1.98    1.00
  YS02001890YS02001895 CONDUIT    535.13     0  01:43      0.68    0.25    1.00
  YS02001895YS02001898 CONDUIT    522.04     0  01:33      0.66    0.91    1.00
  YS02001898YS02001901 CONDUIT    521.34     0  01:33      0.66    0.34    1.00
  YS02001901YS02001904 CONDUIT    520.90     0  01:33      0.66    0.81    1.00
  YS02001904YS02001907 CONDUIT    521.27     0  01:33      0.66    0.18    1.00
  YS02001907YS02006553 CONDUIT    790.30     0  02:09      0.88    0.93    1.00
  YS02001910YS02001907 CONDUIT   1982.74     0  01:40      2.52    1.12    1.00
  YS02001915YS02001910 CONDUIT   1982.52     0  01:40      2.52    0.98    1.00
  YS02001918YS02001915 CONDUIT    652.01     0  01:41      0.83    0.36    1.00
  YS02001920YS02001918 CONDUIT    651.82     0  01:41      0.83    0.63    1.00
  YS02001923YS02001920 CONDUIT    649.13     0  01:41      0.83    0.29    1.00
  YS02001926YS02001923 CONDUIT    653.21     0  01:33      1.08    0.93    1.00
  YS02001929YS02001926 CONDUIT    648.62     0  01:41      1.18    0.31    1.00
  YS02006553YS02006556 CONDUIT    790.48     0  02:09      1.01    0.68    1.00
  YS02006556YS02006558 CONDUIT    790.66     0  02:09      1.01    0.62    1.00
  YS02006558YS02006561 CONDUIT   1173.23     0  01:37      4.15    2.59    1.00
  YS02006561YS02001783 CONDUIT   1174.04     0  01:37      2.34    0.61    1.00
  YS02163301YS02001633 CONDUIT    923.95     0  02:15      1.18    0.87    1.00
  YS02163601YS02164001 CONDUIT   1424.13     0  01:33      1.81    1.26    1.00
  YS02164001YS02001641 CONDUIT   1423.28     0  01:33      1.81    1.94    1.00
  CC-R1                PUMP       683.00     0  00:00              1.00
  CC-R2                PUMP       683.00     0  00:00              1.00
  CC-S1                PUMP       200.00     0  00:00              1.00
  CC-S2                PUMP       200.00     0  00:00              1.00
  JK-R1                PUMP      1000.00     0  00:00              1.00
  JK-R2                PUMP      1000.00     0  00:00              1.00
  JK-S                 PUMP       300.00     0  00:00              1.00
  
  
  ***************************
  Flow Classification Summary
  ***************************
  
  -------------------------------------------------------------------------------------
                      Adjusted    ---------- Fraction of Time in Flow Class ---------- 
                       /Actual         Up    Down  Sub   Sup   Up    Down  Norm  Inlet 
  Conduit               Length    Dry  Dry   Dry   Crit  Crit  Crit  Crit  Ltd   Ctrl  
  -------------------------------------------------------------------------------------
  1                       1.00   0.00  0.00  0.00  0.00  1.00  0.00  0.00  0.35  0.00
  WS02003060WS02003069    1.00   0.00  0.00  0.00  0.98  0.02  0.00  0.00  0.70  0.00
  WS02003066WSF200        1.00   0.05  0.00  0.00  0.00  0.95  0.00  0.00  0.92  0.00
  WS02003067WS02003066    1.00   0.05  0.00  0.00  0.95  0.00  0.00  0.00  0.00  0.00
  WS02003069WS02003072    1.00   0.00  0.00  0.00  0.99  0.01  0.00  0.00  0.71  0.00
  WS02003072WS02003073    1.00   0.00  0.00  0.00  0.00  0.00  0.00  1.00  0.00  0.00
  WS02004401WS02004402    1.00   0.02  0.00  0.00  0.98  0.00  0.00  0.00  0.00  0.00
  WS02004402WS02004403    1.00   0.02  0.00  0.00  0.98  0.00  0.00  0.00  0.00  0.00
  WS02004403WS02004404    1.00   0.00  0.03  0.00  0.97  0.00  0.00  0.00  0.00  0.00
  WS02004404WS02004405    1.00   0.00  0.00  0.00  1.00  0.00  0.00  0.00  0.00  0.00
  WS02004405WS02004406    1.00   0.00  0.00  0.00  1.00  0.00  0.00  0.00  0.00  0.00
  WS02004406WS02004407    1.00   0.00  0.03  0.00  0.97  0.00  0.00  0.00  0.00  0.00
  WS02004407WS02004409    1.00   0.03  0.00  0.00  0.95  0.01  0.00  0.00  0.95  0.00
  WS02004409WS02004410    1.00   0.03  0.00  0.00  0.96  0.00  0.00  0.00  0.00  0.00
  WS02004410WS02004411    1.00   0.04  0.00  0.00  0.96  0.00  0.00  0.00  0.00  0.00
  WS02004411WS02004412    1.00   0.04  0.00  0.00  0.96  0.00  0.00  0.00  0.00  0.00
  WS02004412WS02004413    1.00   0.04  0.00  0.00  0.96  0.00  0.00  0.00  0.00  0.00
  WS02004413WS02003067    1.00   0.04  0.01  0.00  0.00  0.00  0.95  0.00  0.00  0.00
  WS02006109WS02006110    1.00   0.00  0.01  0.00  0.98  0.00  0.01  0.00  0.00  0.00
  WS02006110WS02006113    1.00   0.01  0.01  0.00  0.98  0.00  0.00  0.00  0.00  0.00
  WS02006111WS02006112    1.00   0.02  0.00  0.00  0.98  0.00  0.00  0.00  0.98  0.00
  WS02006112WS02006115    1.00   0.02  0.00  0.00  0.97  0.00  0.00  0.00  0.00  0.00
  WS02006113WS02006111    1.00   0.02  0.00  0.00  0.00  0.98  0.00  0.00  0.11  0.00
  WS02006115WS02006116    1.00   0.02  0.00  0.00  0.97  0.00  0.00  0.01  0.00  0.00
  WS02006116WS02004401    1.00   0.02  0.00  0.00  0.98  0.00  0.00  0.00  0.00  0.00
  WS02006228WS02006109    1.00   0.00  0.00  0.00  1.00  0.00  0.00  0.00  0.00  0.00
  WS02006229WS02006228    1.00   0.00  0.00  0.00  0.99  0.00  0.00  0.01  0.00  0.00
  WS02006230WS02006229    1.00   0.00  0.00  0.00  0.99  0.00  0.00  0.01  0.03  0.00
  WS02006231WS02006230    1.00   0.00  0.00  0.00  0.31  0.00  0.69  0.00  0.00  0.00
  WS02006232WS02006231    1.00   0.00  0.00  0.00  0.99  0.00  0.00  0.00  0.00  0.00
  WS02006234WS02006232    1.00   0.00  0.00  0.00  1.00  0.00  0.00  0.00  0.01  0.00
  WS02006235WS02006234    1.00   0.00  0.00  0.00  0.94  0.00  0.06  0.00  0.00  0.00
  WS02006238WS02006235    1.00   0.00  0.00  0.00  1.00  0.00  0.00  0.00  0.00  0.00
  WS02006239WS02006238    1.00   0.00  0.00  0.00  1.00  0.00  0.00  0.00  0.05  0.00
  WS02006240WS02006239    1.00   0.00  0.00  0.00  0.93  0.00  0.00  0.07  0.31  0.00
  WS02006242WS02006240    1.00   0.00  0.00  0.00  0.91  0.00  0.09  0.00  0.00  0.00
  WS02006243WS02006242    1.00   0.00  0.00  0.00  0.98  0.00  0.00  0.02  0.59  0.00
  WS02006245WS02006243    1.00   0.00  0.00  0.00  0.71  0.00  0.00  0.29  0.00  0.00
  WS02006247WS02006245    1.00   0.00  0.00  0.00  0.97  0.00  0.00  0.03  0.00  0.00
  WS02006248WS02006247    1.00   0.00  0.00  0.00  0.98  0.00  0.00  0.02  0.37  0.00
  WS02006249WS02006248    1.00   0.00  0.00  0.00  0.45  0.00  0.55  0.00  0.00  0.00
  WS02006251WS02006249    1.00   0.00  0.00  0.00  0.99  0.01  0.00  0.00  0.59  0.00
  WS02006252WS02006251    1.00   0.00  0.50  0.00  0.12  0.00  0.37  0.00  0.01  0.00
  WS02006256WS02006235    1.00   0.00  0.00  0.00  0.95  0.05  0.00  0.00  0.01  0.00
  WSF200WS02003060        1.00   0.00  0.05  0.00  0.37  0.59  0.00  0.00  0.64  0.00
  YS02001580YS02001583    1.00   0.19  0.56  0.00  0.25  0.00  0.00  0.00  0.66  0.00
  YS02001583YS02001586    1.00   0.40  0.30  0.00  0.30  0.00  0.00  0.00  0.66  0.00
  YS02001586YS02001590    1.00   0.13  0.00  0.00  0.46  0.04  0.00  0.38  0.33  0.00
  YS02001590YS02001593    1.00   0.13  0.01  0.00  0.17  0.00  0.69  0.00  0.00  0.00
  YS02001593YS02001596    1.00   0.13  0.00  0.00  0.20  0.01  0.00  0.66  0.03  0.00
  YS02001596YS02001600    1.00   0.13  0.00  0.00  0.24  0.01  0.00  0.61  0.03  0.00
  YS02001600YS02001601    1.00   0.13  0.01  0.00  0.86  0.00  0.00  0.00  0.57  0.00
  YS02001601YS02001602    1.00   0.13  0.01  0.00  0.87  0.00  0.00  0.00  0.00  0.00
  YS02001602YS02001605    1.00   0.13  0.00  0.00  0.87  0.00  0.00  0.00  0.00  0.00
  YS02001605YS02001607    1.00   0.13  0.00  0.00  0.87  0.00  0.00  0.00  0.00  0.00
  YS02001607YS02001610    1.00   0.13  0.00  0.00  0.86  0.00  0.00  0.00  0.01  0.00
  YS02001610YS02001613    1.00   0.13  0.00  0.00  0.87  0.00  0.00  0.00  0.00  0.00
  YS02001613YS02001616    1.00   0.13  0.00  0.00  0.87  0.00  0.00  0.00  0.00  0.00
  YS02001616YS02001619    1.00   0.13  0.00  0.00  0.87  0.00  0.00  0.00  0.00  0.00
  YS02001619YS02001622    1.00   0.13  0.00  0.00  0.87  0.00  0.00  0.00  0.27  0.00
  YS02001622YS02001625    1.00   0.13  0.00  0.00  0.87  0.00  0.00  0.00  0.02  0.00
  YS02001625YS02001629    1.00   0.13  0.03  0.00  0.21  0.00  0.62  0.00  0.00  0.00
  YS02001629YS02163301    1.00   0.14  0.01  0.00  0.85  0.00  0.00  0.00  0.00  0.00
  YS02001633YS02163601    1.00   0.00  0.01  0.00  0.99  0.00  0.00  0.00  0.14  0.00
  YS02001641YS02001644    1.00   0.00  0.01  0.00  0.99  0.00  0.00  0.00  0.00  0.00
  YS02001644YS02001647    1.00   0.00  0.16  0.00  0.84  0.00  0.00  0.00  0.00  0.00
  YS02001647YS02001649    1.00   0.00  0.16  0.00  0.53  0.31  0.00  0.00  0.55  0.00
  YS02001649YS02001757    1.00   0.00  0.00  0.00  0.88  0.12  0.00  0.00  0.72  0.00
  YS02001652YS02001649    1.00   0.00  0.00  0.00  0.98  0.02  0.00  0.00  0.70  0.00
  YS02001655YS02001652    1.00   0.00  0.00  0.00  0.23  0.01  0.00  0.76  0.07  0.00
  YS02001658YS02001655    1.00   0.00  0.14  0.00  0.67  0.19  0.00  0.00  0.69  0.00
  YS02001661YS02001658    1.00   0.14  0.00  0.00  0.49  0.37  0.00  0.00  0.74  0.00
  YS02001664YS02001661    1.00   0.13  0.00  0.00  0.70  0.17  0.00  0.00  0.83  0.00
  YS02001745YS02001748    1.00   0.00  0.00  0.00  0.10  0.01  0.00  0.89  0.07  0.00
  YS02001748YS02001751    1.00   0.00  0.00  0.00  0.83  0.17  0.00  0.00  0.80  0.00
  YS02001751YS02001754    1.00   0.00  0.00  0.00  0.19  0.01  0.00  0.81  0.04  0.00
  YS02001754YS02001757    1.00   0.00  0.00  0.00  1.00  0.00  0.00  0.00  0.79  0.00
  YS02001757CaochengTiaoxuchi    1.00   0.00  0.00  0.00  0.24  0.76  0.00  0.00  0.12  0.00
  YS02001759YS02001757    1.00   0.00  0.00  0.00  1.00  0.00  0.00  0.00  0.60  0.00
  YS02001762YS02001759    1.00   0.00  0.00  0.00  1.00  0.00  0.00  0.00  0.05  0.00
  YS02001765YS02001762    1.00   0.00  0.00  0.00  1.00  0.00  0.00  0.00  0.70  0.00
  YS02001767YS02001765    1.00   0.00  0.00  0.00  1.00  0.00  0.00  0.00  0.00  0.00
  YS02001770YS02001767    1.00   0.00  0.00  0.00  1.00  0.00  0.00  0.00  0.00  0.00
  YS02001774YS02001770    1.00   0.00  0.13  0.00  0.72  0.00  0.15  0.00  0.02  0.00
  YS02001779YS02001774    1.00   0.00  0.00  0.00  1.00  0.00  0.00  0.00  0.75  0.00
  YS02001783YS02001784    1.00   0.00  0.16  0.00  0.84  0.00  0.00  0.00  0.54  0.00
  YS02001784YS02001785    1.00   0.00  0.00  0.00  1.00  0.00  0.00  0.00  0.15  0.00
  YS02001786YS02001788    1.00   0.00  0.00  0.00  0.80  0.20  0.00  0.00  0.00  0.00
  YS02001788YS02001790    1.00   0.00  0.00  0.00  0.21  0.79  0.00  0.00  0.77  0.00
  YS02001790YS02001791    1.00   0.00  0.00  0.00  0.01  0.99  0.00  0.00  0.15  0.00
  YS02001791YS02001793    1.00   0.00  0.00  0.00  0.00  1.00  0.00  0.00  0.02  0.00
  YS02001793JiankangQianchi    1.00   0.00  0.00  0.00  0.00  1.00  0.00  0.00  0.12  0.00
  YS02001882YS02001884    1.00   0.14  0.00  0.00  0.85  0.00  0.00  0.00  0.00  0.00
  YS02001884YS02001887    1.00   0.06  0.05  0.00  0.89  0.00  0.00  0.00  0.00  0.00
  YS02001887YS02001890    1.00   0.00  0.00  0.00  0.97  0.00  0.03  0.00  0.00  0.00
  YS02001890YS02001895    1.00   0.00  0.15  0.00  0.85  0.00  0.00  0.00  0.00  0.00
  YS02001895YS02001898    1.00   0.15  0.00  0.00  0.84  0.00  0.01  0.00  0.00  0.00
  YS02001898YS02001901    1.00   0.15  0.00  0.00  0.85  0.00  0.00  0.00  0.00  0.00
  YS02001901YS02001904    1.00   0.15  0.00  0.00  0.85  0.00  0.00  0.00  0.00  0.00
  YS02001904YS02001907    1.00   0.00  0.15  0.00  0.85  0.00  0.00  0.00  0.00  0.00
  YS02001907YS02006553    1.00   0.00  0.02  0.00  0.98  0.00  0.00  0.00  0.00  0.00
  YS02001910YS02001907    1.00   0.00  0.00  0.00  0.97  0.00  0.00  0.03  0.12  0.00
  YS02001915YS02001910    1.00   0.00  0.00  0.00  0.97  0.03  0.00  0.00  0.13  0.00
  YS02001918YS02001915    1.00   0.00  0.01  0.00  0.98  0.02  0.00  0.00  0.69  0.00
  YS02001920YS02001918    1.00   0.00  0.01  0.00  0.99  0.00  0.00  0.00  0.00  0.00
  YS02001923YS02001920    1.00   0.00  0.00  0.00  1.00  0.00  0.00  0.00  0.88  0.00
  YS02001926YS02001923    1.00   0.00  0.07  0.00  0.10  0.00  0.83  0.00  0.00  0.00
  YS02001929YS02001926    1.00   0.00  0.13  0.00  0.87  0.00  0.00  0.00  0.79  0.00
  YS02006553YS02006556    1.00   0.01  0.00  0.00  0.99  0.00  0.00  0.00  0.03  0.00
  YS02006556YS02006558    1.00   0.00  0.00  0.00  1.00  0.00  0.00  0.00  0.00  0.00
  YS02006558YS02006561    1.00   0.16  0.00  0.00  0.09  0.75  0.00  0.00  0.16  0.00
  YS02006561YS02001783    1.00   0.16  0.00  0.00  0.13  0.71  0.00  0.00  0.64  0.00
  YS02163301YS02001633    1.00   0.00  0.14  0.00  0.86  0.00  0.00  0.00  0.00  0.00
  YS02163601YS02164001    1.00   0.00  0.08  0.00  0.92  0.00  0.00  0.00  0.00  0.00
  YS02164001YS02001641    1.00   0.01  0.08  0.00  0.92  0.00  0.00  0.00  0.05  0.00
  
  
  *************************
  Conduit Surcharge Summary
  *************************
  
  ----------------------------------------------------------------------------
                                                           Hours        Hours 
                         --------- Hours Full --------   Above Full   Capacity
  Conduit                Both Ends  Upstream  Dnstream   Normal Flow   Limited
  ----------------------------------------------------------------------------
  WS02003072WS02003073        0.01      0.01      0.01      1.07         0.01
  WS02004404WS02004405        0.01      0.01      0.01      2.92         0.01
  WS02006109WS02006110        0.01      0.01      2.33      0.01         0.01
  WS02006110WS02006113        0.01      0.01      2.30      0.01         0.01
  WS02006111WS02006112        0.01      0.01      2.37      0.01         0.01
  WS02006112WS02006115        0.01      0.01      0.57      0.01         0.01
  WS02006228WS02006109        2.26      2.33      2.26      2.59         2.26
  WS02006229WS02006228        2.24      2.27      2.24      2.49         2.24
  WS02006230WS02006229        2.40      2.44      2.40      3.65         2.40
  WS02006231WS02006230        0.01      0.01      0.80      2.97         0.01
  WS02006232WS02006231        0.69      0.69      2.34      0.72         0.01
  WS02006234WS02006232        2.21      2.21      2.34      0.05         0.50
  WS02006235WS02006234        1.78      1.78      2.27      2.87         0.36
  WS02006238WS02006235        2.28      2.28      2.37      0.01         0.01
  WS02006239WS02006238        2.30      2.35      2.31      2.46         1.72
  WS02006240WS02006239        2.27      2.29      2.27      2.45         1.80
  WS02006242WS02006240        2.27      2.27      2.41      2.52         0.01
  WS02006243WS02006242        2.30      2.30      2.37      0.01         0.07
  WS02006245WS02006243        2.28      2.29      2.28      2.49         2.04
  WS02006247WS02006245        2.28      2.31      2.28      2.64         2.28
  WS02006248WS02006247        2.28      2.28      2.30      0.01         0.05
  WS02006249WS02006248        2.27      2.27      2.29      2.60         0.01
  WS02006251WS02006249        2.28      2.29      2.29      2.55         2.17
  WS02006252WS02006251        2.67      2.67      2.67      2.68         0.01
  WS02006256WS02006235        2.05      2.90      5.46      0.96         0.20
  YS02001580YS02001583        1.00      1.00      1.03      0.01         0.01
  YS02001583YS02001586        1.01      1.01      1.13      0.01         0.01
  YS02001586YS02001590        1.14      1.14      1.22      0.01         0.01
  YS02001590YS02001593        1.23      1.23      1.25      1.37         0.01
  YS02001593YS02001596        1.24      1.24      1.36      0.01         0.01
  YS02001596YS02001600        1.44      1.44      1.59      0.01         0.01
  YS02001600YS02001601        1.63      1.63      1.82      0.01         0.01
  YS02001601YS02001602        1.74      1.74      1.85      1.62         0.01
  YS02001602YS02001605        1.71      1.71      1.74      2.48         0.01
  YS02001605YS02001607        1.68      1.71      1.68      1.79         1.68
  YS02001607YS02001610        1.14      1.14      1.18      0.01         0.01
  YS02001610YS02001613        1.13      1.13      1.18      0.01         0.01
  YS02001613YS02001616        1.07      1.07      1.13      0.01         0.01
  YS02001616YS02001619        1.06      1.06      1.07      0.14         0.07
  YS02001619YS02001622        1.05      1.06      1.05      1.28         1.02
  YS02001622YS02001625        1.05      1.05      1.30      0.01         0.01
  YS02001625YS02001629        0.92      0.92      1.30      0.01         0.01
  YS02001629YS02163301        1.27      1.27      1.28      0.51         0.47
  YS02001633YS02163601        1.30      1.30      1.34      0.74         0.72
  YS02001641YS02001644        1.11      1.17      1.11      1.86         1.10
  YS02001644YS02001647        0.80      0.80      1.11      0.04         0.01
  YS02001647YS02001649        0.80      0.80      0.93      0.01         0.01
  YS02001649YS02001757        0.92      0.93      0.98      0.57         0.52
  YS02001652YS02001649        0.68      0.68      0.93      0.01         0.01
  YS02001655YS02001652        0.43      0.43      0.63      0.01         0.01
  YS02001658YS02001655        0.31      0.31      0.43      0.01         0.01
  YS02001661YS02001658        0.16      0.16      0.31      0.01         0.01
  YS02001664YS02001661        0.01      0.01      0.19      0.01         0.01
  YS02001745YS02001748        0.01      0.01      0.20      0.01         0.01
  YS02001748YS02001751        0.27      0.27      0.33      0.01         0.01
  YS02001751YS02001754        0.33      0.33      0.44      0.01         0.01
  YS02001754YS02001757        0.46      0.46      0.98      0.01         0.01
  YS02001757CaochengTiaoxuchi        0.47      0.98      1.07      0.73         0.19
  YS02001759YS02001757        0.82      0.82      0.98      0.13         0.14
  YS02001762YS02001759        0.78      0.78      0.82      0.01         0.04
  YS02001765YS02001762        0.72      0.72      0.78      0.01         0.01
  YS02001767YS02001765        0.66      0.66      0.72      0.04         0.07
  YS02001770YS02001767        0.66      0.67      0.66      0.88         0.59
  YS02001774YS02001770        0.62      0.62      0.76      0.01         0.01
  YS02001779YS02001774        0.46      0.46      0.76      0.01         0.01
  YS02001783YS02001784        0.80      0.84      0.80      1.01         0.80
  YS02001784YS02001785        0.68      0.80      0.68      1.39         0.68
  YS02001786YS02001788        0.01      0.68      0.01      1.19         0.01
  YS02001790YS02001791        0.01      0.01      0.01      0.79         0.01
  YS02001882YS02001884        0.76      0.76      0.77      0.01         0.01
  YS02001884YS02001887        0.81      0.81      0.82      0.01         0.01
  YS02001887YS02001890        0.84      0.84      0.85      0.24         0.01
  YS02001890YS02001895        0.75      0.75      0.88      0.01         0.01
  YS02001895YS02001898        0.74      0.74      0.75      0.01         0.01
  YS02001898YS02001901        0.75      0.75      0.80      0.01         0.01
  YS02001901YS02001904        0.79      0.79      0.80      0.01         0.01
  YS02001904YS02001907        0.79      0.79      1.15      0.01         0.01
  YS02001907YS02006553        1.40      1.40      1.50      0.01         0.01
  YS02001910YS02001907        0.87      0.87      1.09      0.11         0.11
  YS02001915YS02001910        0.76      0.76      0.87      0.01         0.02
  YS02001918YS02001915        0.66      0.66      0.76      0.01         0.01
  YS02001920YS02001918        0.66      0.66      0.67      0.01         0.01
  YS02001923YS02001920        0.60      0.60      0.67      0.01         0.01
  YS02001926YS02001923        0.26      0.26      0.29      0.01         0.01
  YS02001929YS02001926        0.14      0.14      0.29      0.01         0.01
  YS02006553YS02006556        0.98      0.98      1.15      0.01         0.01
  YS02006556YS02006558        1.04      1.04      1.18      0.01         0.01
  YS02006558YS02006561        0.70      0.97      0.70      1.32         0.70
  YS02006561YS02001783        0.62      0.62      0.84      0.01         0.01
  YS02163301YS02001633        1.28      1.28      1.33      0.01         0.01
  YS02163601YS02164001        1.19      1.19      1.34      0.38         0.01
  YS02164001YS02001641        1.17      1.19      1.17      1.09         0.89
  
  
  ***************
  Pumping Summary
  ***************
  
  ---------------------------------------------------------------------------------------------------------
                                                  Min       Avg       Max     Total     Power    % Time Off
                        Percent   Number of      Flow      Flow      Flow    Volume     Usage    Pump Curve
  Pump                 Utilized   Start-Ups       LPS       LPS       LPS  10^6 ltr     Kw-hr    Low   High
  ---------------------------------------------------------------------------------------------------------
  CC-R1                   33.81          19      0.00    683.00    683.00     6.582    111.99    0.0   60.0
  CC-R2                   33.81          19      0.00    683.00    683.00     6.582    111.99    0.0   60.0
  CC-S1                   33.81          19      0.00    200.00    200.00     1.927     13.67    0.0   22.6
  CC-S2                   33.81          19      0.00    200.00    200.00     1.927     13.67    0.0   22.6
  JK-R1                   12.63        1444      0.00    932.44   1000.00     2.965      6.84    0.0    0.0
  JK-R2                   12.63        1444      0.00    932.44   1000.00     2.965      6.84    0.0    0.0
  JK-S                    12.63        1444      0.00    296.21    300.00     1.031     23.70    0.0    0.0
  

  Analysis begun on:  Wed Feb 26 11:08:43 2025
  Analysis ended on:  Wed Feb 26 11:08:45 2025
  Total elapsed time: 00:00:02