
  EPA STORM WATER MANAGEMENT MODEL - VERSION 5.2 (Build 5.2.4)
  PYSWMM TOOLKIT API - VERSION v1.0 (2023-11-27)
  ------------------------------------------------------------

  WARNING 04: minimum elevation drop used for Conduit WS02004404WS02004405
  WARNING 03: negative offset ignored for Link YS02001904YS02001907
  
  ****************
  Analysis Options
  ****************
  Flow Units ............... LPS
  Process Models:
    Rainfall/Runoff ........ YES
    RDII ................... NO
    Snowmelt ............... NO
    Groundwater ............ NO
    Flow Routing ........... YES
    Ponding Allowed ........ NO
    Water Quality .......... NO
  Infiltration Method ...... HORTON
  Flow Routing Method ...... DYNWAVE
  Surcharge Method ......... EXTRAN
  Starting Date ............ 08/28/2015 08:00:00
  Ending Date .............. 08/28/2015 16:00:00
  Antecedent Dry Days ...... 8.0
  Report Time Step ......... 00:01:00
  Wet Time Step ............ 00:01:00
  Dry Time Step ............ 00:01:00
  Routing Time Step ........ 30.00 sec
  Variable Time Step ....... YES
  Maximum Trials ........... 8
  Number of Threads ........ 4
  Head Tolerance ........... 0.001500 m
  
  
  **************************        Volume         Depth
  Runoff Quantity Continuity     hectare-m            mm
  **************************     ---------       -------
  Total Precipitation ......         2.296        69.221
  Evaporation Loss .........         0.000         0.000
  Infiltration Loss ........         0.103         3.093
  Surface Runoff ...........         2.161        65.146
  Final Storage ............         0.033         0.998
  Continuity Error (%) .....        -0.024
  
  
  **************************        Volume        Volume
  Flow Routing Continuity        hectare-m      10^6 ltr
  **************************     ---------     ---------
  Dry Weather Inflow .......         0.025         0.248
  Wet Weather Inflow .......         2.161        21.606
  Groundwater Inflow .......         0.000         0.000
  RDII Inflow ..............         0.000         0.000
  External Inflow ..........         0.083         0.825
  External Outflow .........         1.948        19.480
  Flooding Loss ............         0.659         6.586
  Evaporation Loss .........         0.000         0.000
  Exfiltration Loss ........         0.000         0.000
  Initial Stored Volume ....         0.243         2.431
  Final Stored Volume ......         0.039         0.391
  Continuity Error (%) .....        -5.362
  
  
  *************************
  Highest Continuity Errors
  *************************
  Node JK-storage (-27.83%)
  Node WS02006256 (-16.70%)
  Node YS02001884 (5.30%)
  Node YS02001583 (-4.38%)
  
  
  ***************************
  Time-Step Critical Elements
  ***************************
  Link YS02001793JiankangQianchi (39.14%)
  Link WS02006238WS02006235 (31.47%)
  Link WS02004404WS02004405 (7.01%)
  Link WS02003066WSF200 (4.50%)
  Link WS02006235WS02006234 (3.99%)
  
  
  ********************************
  Highest Flow Instability Indexes
  ********************************
  Link WS02006256WS02006235 (58)
  Link WS02006252WS02006251 (43)
  Link WS02006235WS02006234 (40)
  Link WS02006238WS02006235 (38)
  Link WS02006113WS02006111 (35)
  
  
  *********************************
  Most Frequent Nonconverging Nodes
  *********************************
  Node CC-1 (47.49%)
  Node CC-2 (47.49%)
  Node JK-1 (47.49%)
  Node JK-2 (47.49%)
  Node WSC (47.49%)
  
  
  *************************
  Routing Time Step Summary
  *************************
  Minimum Time Step           :     0.00 sec
  Average Time Step           :     2.66 sec
  Maximum Time Step           :     6.43 sec
  % of Time in Steady State   :     0.00
  Average Iterations per Step :     5.51
  % of Steps Not Converging   :    47.49
  Time Step Frequencies       :
     30.000 - 13.228 sec      :     0.00 %
     13.228 -  5.833 sec      :     6.84 %
      5.833 -  2.572 sec      :    35.39 %
      2.572 -  1.134 sec      :    37.19 %
      1.134 -  0.500 sec      :    20.58 %
  
  
  ***************************
  Subcatchment Runoff Summary
  ***************************
  
  ------------------------------------------------------------------------------------------------------------------------------
                            Total      Total      Total      Total     Imperv       Perv      Total       Total     Peak  Runoff
                           Precip      Runon       Evap      Infil     Runoff     Runoff     Runoff      Runoff   Runoff   Coeff
  Subcatchment                 mm         mm         mm         mm         mm         mm         mm    10^6 ltr      LPS
  ------------------------------------------------------------------------------------------------------------------------------
  sub60                     69.22       0.00       0.00       1.83      59.71       6.48      66.20        0.87   653.10   0.956
  sub61                     69.22       0.00       0.00       2.66      56.33       9.11      65.44        1.20   908.71   0.945
  sub62                     69.22       0.00       0.00       1.22      62.40       4.32      66.72        1.83  1279.29   0.964
  sub63                     69.22       0.00       0.00       4.96      48.18      15.12      63.30        1.44  1039.26   0.914
  sub64                     69.22       0.00       0.00       2.50      57.63       7.89      65.52        1.57  1050.58   0.947
  sub65                     69.22       0.00       0.00       2.16      58.97       6.84      65.81        1.81  1172.64   0.951
  sub66                     69.22       0.00       0.00       6.20      48.07      13.88      61.95        2.89  1579.01   0.895
  sub67                     69.22       0.00       0.00       1.17      62.44       4.37      66.82        1.24   971.92   0.965
  sub68                     69.22       0.00       0.00       2.20      58.35       7.49      65.83        1.81  1314.08   0.951
  sub69                     69.22       0.00       0.00       2.00      58.73       8.39      67.11        2.48  1556.60   0.970
  sub70                     69.22       0.00       0.00       6.73      45.52      16.81      62.32        1.80   885.47   0.900
  sub71                     69.22       0.00       0.00       1.25      62.35       4.28      66.64        1.74  1130.99   0.963
  sub72                     69.22       0.00       0.00       1.12      62.97       3.73      66.70        0.92   549.34   0.964
  
  
  ******************
  Node Depth Summary
  ******************
  
  ---------------------------------------------------------------------------------
                                 Average  Maximum  Maximum  Time of Max    Reported
                                   Depth    Depth      HGL   Occurrence   Max Depth
  Node                 Type       Meters   Meters   Meters  days hr:min      Meters
  ---------------------------------------------------------------------------------
  WS02003060           JUNCTION     0.22     0.37     5.30     0  02:30        0.37
  WS02003066           JUNCTION     0.18     0.29     5.84     0  02:29        0.29
  WS02003067           JUNCTION     0.47     0.69     6.01     0  02:29        0.69
  WS02003069           JUNCTION     0.24     0.41     5.00     0  02:31        0.41
  WS02003072           JUNCTION     0.30     0.48     4.85     0  02:31        0.48
  WS02003073           JUNCTION     0.17     0.29     4.35     0  02:32        0.29
  WS02004401           JUNCTION     0.56     0.82     6.82     0  02:26        0.82
  WS02004402           JUNCTION     0.59     0.85     6.81     0  02:26        0.85
  WS02004403           JUNCTION     0.61     0.87     6.80     0  02:27        0.87
  WS02004404           JUNCTION     0.69     0.94     6.79     0  02:27        0.94
  WS02004405           JUNCTION     0.69     0.93     6.78     0  02:27        0.93
  WS02004406           JUNCTION     0.70     0.94     6.77     0  02:27        0.94
  WS02004407           JUNCTION     0.16     0.29     6.60     0  02:27        0.29
  WS02004409           JUNCTION     0.36     0.64     6.41     0  02:28        0.64
  WS02004410           JUNCTION     0.39     0.66     6.38     0  02:28        0.66
  WS02004411           JUNCTION     0.41     0.67     6.35     0  02:29        0.67
  WS02004412           JUNCTION     0.43     0.68     6.32     0  02:29        0.68
  WS02004413           JUNCTION     0.58     0.84     6.31     0  02:29        0.84
  WS02006109           JUNCTION     0.64     0.94     7.56     0  02:25        0.93
  WS02006110           JUNCTION     0.64     0.90     7.48     0  02:25        0.89
  WS02006111           JUNCTION     0.17     0.28     6.98     0  02:26        0.28
  WS02006112           JUNCTION     0.72     1.03     6.91     0  02:32        1.02
  WS02006113           JUNCTION     0.26     0.44     7.33     0  02:25        0.44
  WS02006115           JUNCTION     0.45     0.72     6.86     0  02:35        0.72
  WS02006116           JUNCTION     0.53     0.80     6.84     0  02:26        0.80
  WS02006228           JUNCTION     0.63     0.98     7.63     0  02:25        0.97
  WS02006229           JUNCTION     0.60     0.97     7.67     0  02:25        0.95
  WS02006230           JUNCTION     0.60     1.05     7.79     0  02:25        1.02
  WS02006231           JUNCTION     0.41     1.05     8.17     0  02:25        0.77
  WS02006232           JUNCTION     0.54     1.32     8.36     0  02:25        1.32
  WS02006234           JUNCTION     0.47     1.82     8.98     0  02:25        1.82
  WS02006235           JUNCTION     0.51     2.00     9.16     0  02:25        2.00
  WS02006238           JUNCTION     0.54     2.15     9.29     0  02:25        2.15
  WS02006239           JUNCTION     0.51     2.03     9.24     0  02:25        2.03
  WS02006240           JUNCTION     0.47     1.96     9.25     0  02:25        1.96
  WS02006242           JUNCTION     0.54     1.55     8.82     0  02:25        1.55
  WS02006243           JUNCTION     0.47     1.43     8.85     0  02:25        1.43
  WS02006245           JUNCTION     0.48     1.30     8.79     0  02:25        1.30
  WS02006247           JUNCTION     0.50     1.23     8.73     0  02:25        1.23
  WS02006248           JUNCTION     0.47     1.10     8.69     0  02:11        1.10
  WS02006249           JUNCTION     0.50     1.09     8.69     0  02:11        1.09
  WS02006251           JUNCTION     0.50     1.14     8.81     0  02:41        1.12
  WS02006252           JUNCTION     0.32     1.50     9.74     0  00:00        1.50
  WS02006256           JUNCTION     0.95     2.35     9.28     0  00:00        2.35
  WSF200               JUNCTION     0.15     0.28     5.51     0  02:29        0.28
  YS02001580           JUNCTION     0.16     1.05     9.59     0  02:10        0.77
  YS02001583           JUNCTION     0.19     1.14     9.64     0  02:10        0.82
  YS02001586           JUNCTION     0.31     1.13     9.30     0  02:10        1.13
  YS02001590           JUNCTION     0.43     1.40     9.26     0  02:10        1.38
  YS02001593           JUNCTION     0.36     1.33     9.19     0  02:10        1.30
  YS02001596           JUNCTION     0.49     1.69     9.11     0  02:10        1.66
  YS02001600           JUNCTION     0.59     1.87     9.00     0  02:05        1.87
  YS02001601           JUNCTION     0.78     2.06     8.90     0  02:05        2.06
  YS02001602           JUNCTION     0.67     1.87     8.77     0  02:05        1.87
  YS02001605           JUNCTION     0.62     1.78     8.68     0  02:28        1.77
  YS02001607           JUNCTION     0.57     1.65     8.49     0  02:23        1.65
  YS02001610           JUNCTION     0.61     1.68     8.48     0  02:15        1.68
  YS02001613           JUNCTION     0.57     1.68     8.52     0  02:23        1.68
  YS02001616           JUNCTION     0.51     1.61     8.52     0  02:23        1.61
  YS02001619           JUNCTION     0.49     1.61     8.54     0  02:23        1.61
  YS02001622           JUNCTION     0.47     1.59     8.50     0  02:23        1.59
  YS02001625           JUNCTION     0.71     1.78     8.38     0  02:15        1.78
  YS02001629           JUNCTION     0.61     1.85     8.40     0  02:17        1.85
  YS02001633           JUNCTION     0.68     2.05     8.50     0  02:23        2.05
  YS02001641           JUNCTION     0.63     1.95     8.39     0  02:23        1.95
  YS02001644           JUNCTION     0.62     1.92     8.35     0  02:19        1.92
  YS02001647           JUNCTION     0.39     1.76     8.37     0  02:23        1.74
  YS02001649           JUNCTION     0.44     1.99     8.38     0  02:23        1.97
  YS02001652           JUNCTION     0.31     1.86     8.45     0  02:23        1.82
  YS02001655           JUNCTION     0.23     1.81     8.66     0  02:17        1.62
  YS02001658           JUNCTION     0.17     1.47     8.62     0  02:23        1.39
  YS02001661           JUNCTION     0.19     1.27     8.68     0  02:23        1.18
  YS02001664           JUNCTION     0.09     0.67     8.59     0  02:24        0.65
  YS02001745           JUNCTION     0.10     0.86     8.38     0  02:24        0.85
  YS02001748           JUNCTION     0.15     1.79     8.87     0  02:19        1.27
  YS02001751           JUNCTION     0.18     1.78     8.66     0  02:19        1.45
  YS02001754           JUNCTION     0.25     1.85     8.45     0  02:19        1.68
  YS02001757           JUNCTION     0.44     2.01     8.28     0  02:23        2.00
  YS02001759           JUNCTION     0.38     2.03     8.40     0  02:23        2.03
  YS02001762           JUNCTION     0.37     2.00     8.40     0  02:23        1.99
  YS02001765           JUNCTION     0.34     1.97     8.42     0  02:23        1.96
  YS02001767           JUNCTION     0.34     1.94     8.43     0  02:23        1.93
  YS02001770           JUNCTION     0.35     1.95     8.44     0  02:23        1.95
  YS02001774           JUNCTION     0.41     2.00     8.43     0  02:25        2.00
  YS02001779           JUNCTION     0.24     1.68     8.37     0  02:16        1.68
  YS02001783           JUNCTION     0.36     1.33     7.47     0  02:16        1.24
  YS02001784           JUNCTION     0.36     1.16     7.23     0  02:16        1.12
  YS02001786           JUNCTION     0.30     0.92     6.95     0  02:16        0.87
  YS02001788           JUNCTION     0.22     0.62     6.60     0  02:24        0.62
  YS02001790           JUNCTION     0.26     0.73     6.37     0  02:21        0.72
  YS02001791           JUNCTION     0.16     0.44     5.91     0  02:22        0.43
  YS02001793           JUNCTION     0.10     0.26     5.09     0  02:22        0.25
  YS02001882           JUNCTION     0.44     1.69     8.41     0  02:23        1.69
  YS02001884           JUNCTION     0.52     1.78     8.40     0  02:23        1.78
  YS02001887           JUNCTION     0.60     1.88     8.41     0  02:23        1.88
  YS02001890           JUNCTION     0.63     1.81     8.32     0  02:16        1.81
  YS02001895           JUNCTION     0.41     1.57     8.31     0  02:26        1.57
  YS02001898           JUNCTION     0.42     1.56     8.30     0  02:20        1.56
  YS02001901           JUNCTION     0.52     1.68     8.29     0  02:16        1.67
  YS02001904           JUNCTION     0.50     1.65     8.28     0  02:16        1.64
  YS02001907           JUNCTION     0.81     1.96     8.25     0  02:16        1.96
  YS02001910           JUNCTION     0.62     1.99     8.49     0  02:25        1.99
  YS02001915           JUNCTION     0.45     1.97     8.69     0  02:25        1.97
  YS02001918           JUNCTION     0.28     1.81     8.88     0  02:17        1.62
  YS02001920           JUNCTION     0.36     2.14     9.15     0  02:17        1.69
  YS02001923           JUNCTION     0.22     2.03     9.29     0  02:17        1.43
  YS02001926           JUNCTION     0.24     1.90     9.35     0  02:17        1.27
  YS02001929           JUNCTION     0.15     1.78     9.47     0  02:17        1.78
  YS02006553           JUNCTION     0.81     2.00     8.28     0  02:23        2.00
  YS02006556           JUNCTION     0.78     2.00     8.31     0  02:16        2.00
  YS02006558           JUNCTION     0.82     2.07     8.34     0  02:23        2.07
  YS02006561           JUNCTION     0.23     1.05     7.71     0  02:16        0.90
  YS02163301           JUNCTION     0.63     1.94     8.45     0  02:25        1.94
  YS02163601           JUNCTION     0.70     2.05     8.45     0  02:23        2.05
  YS02164001           JUNCTION     0.63     1.96     8.42     0  02:23        1.96
  CC-1                 OUTFALL      0.00     0.00     0.00     0  00:00        0.00
  CC-2                 OUTFALL      0.00     0.00     0.00     0  00:00        0.00
  JK-1                 OUTFALL      0.00     0.00     0.00     0  00:00        0.00
  JK-2                 OUTFALL      0.00     0.00     0.00     0  00:00        0.00
  WSC                  OUTFALL      0.17     0.29     0.96     0  02:32        0.29
  CC-storage           STORAGE      0.23     0.91     6.41     0  02:50        0.91
  JK-storage           STORAGE      0.02     2.99     3.79     0  00:00        0.68
  
  
  *******************
  Node Inflow Summary
  *******************
  
  -------------------------------------------------------------------------------------------------
                                  Maximum  Maximum                  Lateral       Total        Flow
                                  Lateral    Total  Time of Max      Inflow      Inflow     Balance
                                   Inflow   Inflow   Occurrence      Volume      Volume       Error
  Node                 Type           LPS      LPS  days hr:min    10^6 ltr    10^6 ltr     Percent
  -------------------------------------------------------------------------------------------------
  WS02003060           JUNCTION     16.53   515.86     0  02:30       0.471         4.3       0.055
  WS02003066           JUNCTION      0.00   499.22     0  02:29           0        3.83       0.039
  WS02003067           JUNCTION      0.00   499.16     0  02:29           0        3.83       0.110
  WS02003069           JUNCTION      0.32   516.17     0  02:30     0.00912        4.31       0.099
  WS02003072           JUNCTION      0.00   516.07     0  02:31           0         4.3       0.175
  WS02003073           JUNCTION      1.82   517.77     0  02:32      0.0519        4.35       0.138
  WS02004401           JUNCTION      0.00   502.36     0  02:26           0        3.94       0.271
  WS02004402           JUNCTION      0.00   501.59     0  02:26           0        3.93       0.273
  WS02004403           JUNCTION      0.00   501.27     0  02:27           0        3.92       0.266
  WS02004404           JUNCTION      0.16   501.13     0  02:27     0.00462        3.91       0.221
  WS02004405           JUNCTION      0.04   501.17     0  02:27     0.00109         3.9       0.325
  WS02004406           JUNCTION      0.00   501.29     0  02:27           0        3.89       0.552
  WS02004407           JUNCTION      0.00   500.83     0  02:27           0        3.87       0.032
  WS02004409           JUNCTION      0.00   500.60     0  02:27           0        3.87       0.075
  WS02004410           JUNCTION      0.00   500.22     0  02:28           0        3.87       0.123
  WS02004411           JUNCTION      0.00   500.00     0  02:28           0        3.86       0.152
  WS02004412           JUNCTION      0.00   499.62     0  02:28           0        3.86       0.201
  WS02004413           JUNCTION      0.00   499.45     0  02:29           0        3.85       0.371
  WS02006109           JUNCTION      1.23   506.19     0  02:25      0.0351        3.99       0.281
  WS02006110           JUNCTION      0.00   506.60     0  02:25           0        3.98       0.184
  WS02006111           JUNCTION      0.00   521.38     0  02:25           0        3.97       0.033
  WS02006112           JUNCTION      0.00   504.84     0  02:25           0        3.97       0.525
  WS02006113           JUNCTION      0.00   504.50     0  02:25           0        3.97       0.045
  WS02006115           JUNCTION      0.00   509.46     0  02:31           0        3.95       0.189
  WS02006116           JUNCTION      0.00   502.45     0  02:26           0        3.94       0.083
  WS02006228           JUNCTION      0.00   505.87     0  02:25           0        3.96       0.125
  WS02006229           JUNCTION      0.00   504.58     0  02:25           0        3.97       0.122
  WS02006230           JUNCTION     10.28   541.96     0  02:25       0.293        3.97       0.157
  WS02006231           JUNCTION      0.00   526.69     0  02:25           0        3.68       0.063
  WS02006232           JUNCTION      0.00   525.19     0  02:25           0        3.69       0.188
  WS02006234           JUNCTION      0.00   518.97     0  02:25           0        3.68      -0.326
  WS02006235           JUNCTION      0.00   512.15     0  02:39           0        3.86       0.260
  WS02006238           JUNCTION      0.00   416.52     0  02:53           0        3.22       0.203
  WS02006239           JUNCTION      0.00   416.51     0  02:53           0        3.08      -0.154
  WS02006240           JUNCTION      0.00   414.33     0  02:49           0        3.04      -0.067
  WS02006242           JUNCTION      0.00   414.61     0  02:49           0        3.04      -0.027
  WS02006243           JUNCTION      0.00   414.94     0  02:49           0        3.03      -0.267
  WS02006245           JUNCTION      0.00   422.49     0  02:04           0        3.05       0.534
  WS02006247           JUNCTION      0.00   427.42     0  02:06           0        3.05      -0.049
  WS02006248           JUNCTION      0.00   423.60     0  02:06           0        3.04      -0.307
  WS02006249           JUNCTION      0.00   461.96     0  02:01           0        3.08       0.877
  WS02006251           JUNCTION      0.08   406.00     0  03:36     0.00219        3.08       0.035
  WS02006252           JUNCTION      0.00   400.00     0  00:00           0        3.07      -0.596
  WS02006256           JUNCTION      0.00   322.64     0  01:34           0        0.87     -14.312
  WSF200               JUNCTION      0.00   499.21     0  02:29           0        3.83       0.014
  YS02001580           JUNCTION      0.00    76.18     0  02:10           0     0.00402       1.191
  YS02001583           JUNCTION      0.00   122.82     0  02:10           0      0.0154      -4.196
  YS02001586           JUNCTION    885.47   885.47     0  02:26         1.8        1.81       0.059
  YS02001590           JUNCTION      0.00   317.94     0  02:32           0        1.36      -0.036
  YS02001593           JUNCTION      0.00   317.87     0  02:32           0        1.36       0.016
  YS02001596           JUNCTION      0.00   317.84     0  02:30           0        1.36       0.001
  YS02001600           JUNCTION      0.00   317.83     0  02:32           0        1.36       0.024
  YS02001601           JUNCTION   1556.60  1873.99     0  02:25        2.48        3.84       0.026
  YS02001602           JUNCTION      0.00   509.90     0  02:49           0        2.36       0.023
  YS02001605           JUNCTION      0.00   509.91     0  02:49           0        2.26       0.028
  YS02001607           JUNCTION      0.00   510.17     0  02:49           0        2.26       0.090
  YS02001610           JUNCTION      0.00   890.34     0  02:26           0        2.57       0.098
  YS02001613           JUNCTION      0.00   553.71     0  02:26           0        2.14       0.084
  YS02001616           JUNCTION      0.00   553.47     0  02:26           0        2.14       0.023
  YS02001619           JUNCTION   1579.01  1579.01     0  02:26        2.89        4.72       0.002
  YS02001622           JUNCTION      0.00  1032.41     0  02:25           0        4.41       0.005
  YS02001625           JUNCTION      0.00  1458.87     0  02:26           0        4.63       0.192
  YS02001629           JUNCTION      0.00   982.89     0  02:41           0        3.79       0.030
  YS02001633           JUNCTION   1172.84  1359.05     0  02:15        1.82        5.34       0.069
  YS02001641           JUNCTION      0.00  1358.88     0  02:15           0        5.07       0.058
  YS02001644           JUNCTION   1050.62  1743.03     0  02:15        1.57        6.64       0.052
  YS02001647           JUNCTION      0.00  1743.42     0  02:15           0        6.17       0.007
  YS02001649           JUNCTION      0.00  1993.44     0  02:16           0        7.61       0.006
  YS02001652           JUNCTION      0.00  1055.64     0  02:25           0        1.44      -0.047
  YS02001655           JUNCTION      0.15  1055.70     0  02:25     0.00439        1.44       0.020
  YS02001658           JUNCTION      0.00  1055.22     0  02:25           0        1.44      -0.000
  YS02001661           JUNCTION      0.00  1056.05     0  02:25           0        1.44       0.012
  YS02001664           JUNCTION   1039.26  1039.26     0  02:25        1.44        1.44      -0.004
  YS02001745           JUNCTION    653.11   653.11     0  02:25        0.87        0.87       0.084
  YS02001748           JUNCTION      0.04   657.98     0  02:25     0.00128       0.871      -0.123
  YS02001751           JUNCTION      0.01   658.53     0  02:25    0.000313       0.876       0.035
  YS02001754           JUNCTION      0.26   658.63     0  02:25     0.00741       0.885      -0.086
  YS02001757           JUNCTION      0.00  3486.62     0  02:25           0        11.3       0.029
  YS02001759           JUNCTION    908.75  1449.71     0  02:25         1.2        2.82      -0.004
  YS02001762           JUNCTION      0.00   819.40     0  02:30           0        1.62       0.008
  YS02001765           JUNCTION      0.00   819.00     0  02:30           0        1.62       0.007
  YS02001767           JUNCTION      0.54   819.02     0  02:30      0.0152        1.62       0.010
  YS02001770           JUNCTION   1279.44  1279.44     0  02:25        1.83        1.87      -0.005
  YS02001774           JUNCTION      0.00   740.96     0  02:25           0       0.283       0.444
  YS02001779           JUNCTION      0.01   741.17     0  02:25    0.000142       0.242      -0.106
  YS02001783           JUNCTION      0.00  1167.61     0  02:23           0        4.12       0.007
  YS02001784           JUNCTION      1.06  1168.92     0  02:23      0.0302        4.15       0.013
  YS02001786           JUNCTION      0.06  1168.76     0  02:23      0.0016        4.15       0.017
  YS02001788           JUNCTION      0.07  1169.35     0  02:23     0.00202        4.16       0.007
  YS02001790           JUNCTION      0.15  1182.84     0  02:24     0.00442        4.16       0.001
  YS02001791           JUNCTION      0.00  1293.10     0  02:22           0        4.16       0.001
  YS02001793           JUNCTION      0.00  1253.68     0  02:21           0        4.16       0.015
  YS02001882           JUNCTION      0.00    37.61     0  02:13           0      0.0124       5.703
  YS02001884           JUNCTION      0.00    42.27     0  02:12           0      0.0478       5.595
  YS02001887           JUNCTION    972.37   973.32     0  02:25        1.26        1.29       0.349
  YS02001890           JUNCTION      0.00   974.24     0  02:25           0        1.25       0.417
  YS02001895           JUNCTION      0.00   517.68     0  02:25           0         1.1       0.147
  YS02001898           JUNCTION      0.00   517.44     0  02:25           0         1.1       0.035
  YS02001901           JUNCTION      0.00   517.25     0  02:24           0         1.1       0.302
  YS02001904           JUNCTION      0.00   517.29     0  02:25           0        1.11       0.262
  YS02001907           JUNCTION      0.00  2357.62     0  02:25           0        3.86       0.470
  YS02001910           JUNCTION      0.00  1690.14     0  02:25           0        2.74       0.263
  YS02001915           JUNCTION   1131.01  1690.09     0  02:25        1.74        2.77       0.060
  YS02001918           JUNCTION      0.00   561.19     0  02:25           0        1.04       0.027
  YS02001920           JUNCTION      2.87   561.30     0  02:25      0.0818        1.03       0.097
  YS02001923           JUNCTION      0.04   559.88     0  02:25     0.00107       0.938      -0.014
  YS02001926           JUNCTION      0.05   559.75     0  02:25     0.00149       0.924       0.015
  YS02001929           JUNCTION    549.34   549.34     0  02:26       0.917       0.917      -0.049
  YS02006553           JUNCTION      0.00   804.81     0  02:38           0        2.37       0.507
  YS02006556           JUNCTION      0.00   804.06     0  02:38           0        2.38       0.348
  YS02006558           JUNCTION   1314.96  1314.96     0  02:25        1.84        4.17       0.083
  YS02006561           JUNCTION      0.00  1167.93     0  02:23           0        4.12       0.001
  YS02163301           JUNCTION      0.00   984.25     0  02:42           0        3.79       0.044
  YS02163601           JUNCTION      0.11  1359.11     0  02:15     0.00313        5.07       0.101
  YS02164001           JUNCTION      0.00  1358.80     0  02:15           0        5.07       0.051
  CC-1                 OUTFALL       0.00   683.00     0  00:00           0        5.24       0.000
  CC-2                 OUTFALL       0.00   683.00     0  00:00           0        5.24       0.000
  JK-1                 OUTFALL       0.00  1000.00     0  00:00           0        2.33       0.000
  JK-2                 OUTFALL       0.00  1000.00     0  00:00           0        2.33       0.000
  WSC                  OUTFALL       0.00   517.62     0  02:32           0        4.34       0.000
  CC-storage           STORAGE       0.00  3485.90     0  02:25           0        13.5      -0.336
  JK-storage           STORAGE       0.00  1306.86     0  02:22           0        4.31     -21.772
  
  
  **********************
  Node Surcharge Summary
  **********************
  
  Surcharging occurs when water rises above the top of the highest conduit.
  ---------------------------------------------------------------------
                                               Max. Height   Min. Depth
                                   Hours       Above Crown    Below Rim
  Node                 Type      Surcharged         Meters       Meters
  ---------------------------------------------------------------------
  WS02006109           JUNCTION        1.53          0.118        1.702
  WS02006112           JUNCTION        0.40          0.027        1.653
  WS02006228           JUNCTION        1.52          0.145        2.055
  WS02006229           JUNCTION        1.55          0.173        2.277
  WS02006231           JUNCTION        0.47          0.340        1.190
  WS02006232           JUNCTION        1.63          0.621        0.859
  WS02006234           JUNCTION        1.18          1.099        0.141
  WS02006235           JUNCTION        1.53          1.290        0.000
  WS02006238           JUNCTION        1.59          1.430        0.000
  WS02006239           JUNCTION        1.54          1.290        0.000
  WS02006240           JUNCTION        1.54          1.252        0.138
  WS02006242           JUNCTION        1.66          0.820        0.000
  WS02006243           JUNCTION        1.56          0.723        0.047
  WS02006245           JUNCTION        1.56          0.591        0.259
  WS02006247           JUNCTION        1.58          0.516        0.244
  WS02006248           JUNCTION        1.55          0.380        0.000
  WS02006249           JUNCTION        1.57          0.390        0.000
  WS02006251           JUNCTION        0.65          0.110        1.070
  WS02006252           JUNCTION        2.12          1.100        0.000
  WS02006256           JUNCTION        6.66          2.050        0.000
  YS02001580           JUNCTION        0.63          0.450        0.000
  YS02001583           JUNCTION        0.63          0.500        0.000
  YS02001586           JUNCTION        0.73          0.510        0.000
  YS02001590           JUNCTION        0.81          0.750        0.000
  YS02001593           JUNCTION        0.81          0.708        0.132
  YS02001596           JUNCTION        0.93          0.956        0.114
  YS02001600           JUNCTION        1.08          1.190        0.000
  YS02001601           JUNCTION        1.44          1.440        0.000
  YS02001602           JUNCTION        1.32          1.270        0.000
  YS02001605           JUNCTION        1.26          1.175        0.005
  YS02001607           JUNCTION        0.74          0.647        0.033
  YS02001610           JUNCTION        0.77          0.680        0.000
  YS02001613           JUNCTION        0.73          0.679        0.021
  YS02001616           JUNCTION        0.68          0.610        0.000
  YS02001619           JUNCTION        0.67          0.610        0.000
  YS02001622           JUNCTION        0.66          0.592        0.028
  YS02001625           JUNCTION        0.87          0.780        0.000
  YS02001629           JUNCTION        0.56          0.470        0.000
  YS02001633           JUNCTION        0.87          1.027        0.033
  YS02001641           JUNCTION        0.74          0.952        0.148
  YS02001644           JUNCTION        0.67          0.920        0.000
  YS02001647           JUNCTION        0.42          0.762        0.138
  YS02001649           JUNCTION        0.45          0.986        0.064
  YS02001652           JUNCTION        0.33          0.826        0.304
  YS02001655           JUNCTION        0.27          0.808        0.392
  YS02001658           JUNCTION        0.20          0.473        0.827
  YS02001661           JUNCTION        0.06          0.203        1.187
  YS02001748           JUNCTION        0.13          0.709        0.481
  YS02001751           JUNCTION        0.22          0.784        0.416
  YS02001754           JUNCTION        0.27          0.796        0.354
  YS02001757           JUNCTION        0.43          1.015        0.195
  YS02001759           JUNCTION        0.38          1.031        0.179
  YS02001762           JUNCTION        0.36          0.999        0.151
  YS02001765           JUNCTION        0.35          0.965        0.135
  YS02001767           JUNCTION        0.33          0.944        0.086
  YS02001770           JUNCTION        0.33          0.920        0.000
  YS02001774           JUNCTION        0.37          1.004        0.046
  YS02001779           JUNCTION        0.28          0.680        0.000
  YS02001783           JUNCTION        0.55          0.533        1.067
  YS02001784           JUNCTION        0.53          0.360        1.130
  YS02001786           JUNCTION        0.42          0.124        1.306
  YS02001882           JUNCTION        0.50          0.690        0.140
  YS02001884           JUNCTION        0.51          0.719        0.151
  YS02001887           JUNCTION        0.54          0.826        0.124
  YS02001890           JUNCTION        0.56          0.760        0.000
  YS02001895           JUNCTION        0.49          0.567        0.183
  YS02001898           JUNCTION        0.48          0.534        0.206
  YS02001901           JUNCTION        0.53          0.678        0.192
  YS02001904           JUNCTION        0.52          0.646        0.204
  YS02001907           JUNCTION        0.80          0.950        0.000
  YS02001910           JUNCTION        0.59          0.986        0.114
  YS02001915           JUNCTION        0.49          0.969        0.031
  YS02001918           JUNCTION        0.41          0.810        0.000
  YS02001920           JUNCTION        0.42          1.140        0.000
  YS02001923           JUNCTION        0.13          0.820        0.000
  YS02001926           JUNCTION        0.18          0.900        0.000
  YS02001929           JUNCTION        0.01          0.780        0.000
  YS02006553           JUNCTION        0.82          0.999        0.191
  YS02006556           JUNCTION        0.69          0.962        0.388
  YS02006558           JUNCTION        0.67          0.970        0.430
  YS02006561           JUNCTION        0.37          0.248        0.902
  YS02163301           JUNCTION        0.85          0.937        0.093
  YS02163601           JUNCTION        0.90          1.051        0.029
  YS02164001           JUNCTION        0.76          0.964        0.136
  
  
  *********************
  Node Flooding Summary
  *********************
  
  Flooding refers to all water that overflows a node, whether it ponds or not.
  --------------------------------------------------------------------------
                                                             Total   Maximum
                                 Maximum   Time of Max       Flood    Ponded
                        Hours       Rate    Occurrence      Volume     Depth
  Node                 Flooded       LPS   days hr:min    10^6 ltr    Meters
  --------------------------------------------------------------------------
  WS02006235              0.01      7.80      0  02:25       0.000     0.000
  WS02006238              0.01      7.03      0  02:25       0.000     0.000
  WS02006239              0.01      2.83      0  02:25       0.000     0.000
  WS02006242              0.01      8.10      0  02:25       0.000     0.000
  WS02006248              0.01      9.74      0  02:25       0.000     0.000
  WS02006249              0.50     36.11      0  02:25       0.019     0.000
  WS02006252              0.01    278.04      0  02:05       0.004     0.000
  WS02006256              0.84    311.31      0  01:34       0.345     0.000
  YS02001580              0.01     25.04      0  02:10       0.000     0.000
  YS02001583              0.01     63.54      0  02:10       0.000     0.000
  YS02001586              0.50    567.95      0  02:26       0.444     0.000
  YS02001590              0.01      6.88      0  02:10       0.000     0.000
  YS02001600              0.01      1.76      0  02:10       0.000     0.000
  YS02001601              0.65   1476.11      0  02:25       1.484     0.000
  YS02001602              0.46     61.90      0  02:30       0.095     0.000
  YS02001610              0.42    889.95      0  02:26       0.734     0.000
  YS02001616              0.01      0.67      0  02:23       0.000     0.000
  YS02001619              0.01      1.59      0  02:25       0.000     0.000
  YS02001625              0.36   1458.74      0  02:26       1.099     0.000
  YS02001629              0.16    149.42      0  02:25       0.044     0.000
  YS02001644              0.19   1328.55      0  02:25       0.456     0.000
  YS02001770              0.01      2.10      0  02:23       0.000     0.000
  YS02001779              0.17    740.97      0  02:25       0.225     0.000
  YS02001890              0.20    456.40      0  02:25       0.141     0.000
  YS02001907              0.36   2357.33      0  02:25       1.499     0.000
  YS02001918              0.01    101.98      0  02:17       0.001     0.000
  YS02001920              0.01     25.73      0  02:17       0.000     0.000
  YS02001923              0.01     45.52      0  02:17       0.000     0.000
  YS02001926              0.01     39.07      0  02:17       0.000     0.000
  YS02001929              0.01    263.17      0  02:17       0.001     0.000
  
  
  **********************
  Storage Volume Summary
  **********************
  
  ------------------------------------------------------------------------------------------------
                         Average    Avg   Evap  Exfil     Maximum    Max    Time of Max    Maximum
                          Volume   Pcnt   Pcnt   Pcnt      Volume   Pcnt     Occurrence    Outflow
  Storage Unit           1000 m³   Full   Loss   Loss     1000 m³   Full    days hr:min        LPS
  ------------------------------------------------------------------------------------------------
  CC-storage               0.637    9.9    0.0    0.0       2.531   39.5       0  02:50    1783.53
  JK-storage               0.001    0.3    0.0    0.0       0.150   51.6       0  00:00    2300.00
  
  
  ***********************
  Outfall Loading Summary
  ***********************
  
  -----------------------------------------------------------
                         Flow       Avg       Max       Total
                         Freq      Flow      Flow      Volume
  Outfall Node           Pcnt       LPS       LPS    10^6 ltr
  -----------------------------------------------------------
  CC-1                  49.64    683.00    683.00       5.237
  CC-2                  49.64    683.00    683.00       5.237
  JK-1                  18.40    908.89   1000.00       2.333
  JK-2                  18.40    908.89   1000.00       2.333
  WSC                   99.94    225.61    517.62       4.340
  -----------------------------------------------------------
  System                47.21   3409.39   3883.61      19.480
  
  
  ********************
  Link Flow Summary
  ********************
  
  -----------------------------------------------------------------------------
                                 Maximum  Time of Max   Maximum    Max/    Max/
                                  |Flow|   Occurrence   |Veloc|    Full    Full
  Link                 Type          LPS  days hr:min     m/sec    Flow   Depth
  -----------------------------------------------------------------------------
  1                    CONDUIT    517.62     0  02:32      2.77    0.18    0.29
  WS02003060WS02003069 CONDUIT    515.85     0  02:30      1.61    0.20    0.33
  WS02003066WSF200     CONDUIT    499.21     0  02:29      2.80    0.08    0.21
  WS02003067WS02003066 CONDUIT    499.22     0  02:29      1.16    0.16    0.41
  WS02003069WS02003072 CONDUIT    516.07     0  02:31      1.34    0.25    0.37
  WS02003072WS02003073 CONDUIT    515.95     0  02:32      1.40    1.11    0.36
  WS02004401WS02004402 CONDUIT    501.59     0  02:26      1.22    0.60    0.84
  WS02004402WS02004403 CONDUIT    501.27     0  02:27      1.24    0.72    0.86
  WS02004403WS02004404 CONDUIT    500.97     0  02:27      1.24    0.36    0.90
  WS02004404WS02004405 CONDUIT    501.13     0  02:27      1.45    4.91    0.94
  WS02004405WS02004406 CONDUIT    501.29     0  02:27      1.46    0.99    0.93
  WS02004406WS02004407 CONDUIT    500.83     0  02:27      1.00    0.22    0.61
  WS02004407WS02004409 CONDUIT    500.60     0  02:27      1.59    0.18    0.46
  WS02004409WS02004410 CONDUIT    500.22     0  02:28      1.06    0.65    0.65
  WS02004410WS02004411 CONDUIT    500.00     0  02:28      1.12    0.68    0.66
  WS02004411WS02004412 CONDUIT    499.62     0  02:28      1.22    0.71    0.67
  WS02004412WS02004413 CONDUIT    499.45     0  02:29      1.22    0.33    0.76
  WS02004413WS02003067 CONDUIT    499.16     0  02:29      1.07    0.21    0.58
  WS02006109WS02006110 CONDUIT    506.60     0  02:25      1.01    0.97    0.99
  WS02006110WS02006113 CONDUIT    504.50     0  02:25      1.21    0.46    0.77
  WS02006111WS02006112 CONDUIT    504.84     0  02:25      1.95    0.24    0.67
  WS02006112WS02006115 CONDUIT    509.46     0  02:31      0.82    0.30    0.85
  WS02006113WS02006111 CONDUIT    521.38     0  02:25      2.40    0.62    0.45
  WS02006115WS02006116 CONDUIT    502.45     0  02:26      1.29    0.64    0.73
  WS02006116WS02004401 CONDUIT    502.36     0  02:26      1.21    0.69    0.81
  WS02006228WS02006109 CONDUIT    504.96     0  02:25      1.06    2.21    1.00
  WS02006229WS02006228 CONDUIT    505.87     0  02:25      1.12    1.68    1.00
  WS02006230WS02006229 CONDUIT    504.58     0  02:25      1.31   11.23    1.00
  WS02006231WS02006230 CONDUIT    531.68     0  02:25      1.40    8.06    0.98
  WS02006232WS02006231 CONDUIT    526.69     0  02:25      1.37    1.10    1.00
  WS02006234WS02006232 CONDUIT    525.19     0  02:25      1.39    1.06    1.00
  WS02006235WS02006234 CONDUIT    518.97     0  02:25      1.35    5.48    1.00
  WS02006238WS02006235 CONDUIT    423.13     0  02:50      1.45    0.94    1.00
  WS02006239WS02006238 CONDUIT    416.52     0  02:53      1.11    1.33    1.00
  WS02006240WS02006239 CONDUIT    416.51     0  02:53      1.24    1.31    1.00
  WS02006242WS02006240 CONDUIT    414.33     0  02:49      1.16    1.65    1.00
  WS02006243WS02006242 CONDUIT    414.61     0  02:49      1.38    0.89    1.00
  WS02006245WS02006243 CONDUIT    414.94     0  02:49      1.44    1.23    1.00
  WS02006247WS02006245 CONDUIT    422.49     0  02:04      1.43    3.35    1.00
  WS02006248WS02006247 CONDUIT    427.42     0  02:06      1.42    0.93    1.00
  WS02006249WS02006248 CONDUIT    423.60     0  02:06      1.36    2.32    1.00
  WS02006251WS02006249 CONDUIT    461.96     0  02:01      2.12    1.33    1.00
  WS02006252WS02006251 CONDUIT    405.93     0  03:36     27.73    1.49    1.00
  WS02006256WS02006235 CONDUIT    288.91     0  00:00      4.23    3.06    1.00
  WSF200WS02003060     CONDUIT    499.33     0  02:30      2.02    0.11    0.27
  YS02001580YS02001583 CONDUIT     76.18     0  02:10      0.53    0.30    1.00
  YS02001583YS02001586 CONDUIT    122.82     0  02:10      0.52    0.19    1.00
  YS02001586YS02001590 CONDUIT    317.94     0  02:32      1.27    0.56    1.00
  YS02001590YS02001593 CONDUIT    317.87     0  02:32      1.12    2.00    1.00
  YS02001593YS02001596 CONDUIT    317.84     0  02:30      1.78    0.50    1.00
  YS02001596YS02001600 CONDUIT    317.83     0  02:32      1.28    0.62    1.00
  YS02001600YS02001601 CONDUIT    317.85     0  02:32      1.12    0.55    1.00
  YS02001601YS02001602 CONDUIT    509.90     0  02:49      1.80    1.84    1.00
  YS02001602YS02001605 CONDUIT    509.91     0  02:49      1.80   10.79    1.00
  YS02001605YS02001607 CONDUIT    510.17     0  02:49      1.80    2.80    1.00
  YS02001607YS02001610 CONDUIT    510.12     0  02:49      0.65    0.49    1.00
  YS02001610YS02001613 CONDUIT    553.83     0  02:26      0.71    0.64    1.00
  YS02001613YS02001616 CONDUIT    553.71     0  02:26      0.70    0.47    1.00
  YS02001616YS02001619 CONDUIT    553.47     0  02:26      0.70    0.96    1.00
  YS02001619YS02001622 CONDUIT   1032.41     0  02:25      1.31    1.52    1.00
  YS02001622YS02001625 CONDUIT   1032.58     0  02:25      1.31    0.55    1.00
  YS02001625YS02001629 CONDUIT    982.89     0  02:41      1.25    0.47    1.00
  YS02001629YS02163301 CONDUIT    984.25     0  02:42      1.25    1.21    1.00
  YS02001633YS02163601 CONDUIT   1359.00     0  02:15      1.73    1.43    1.00
  YS02001641YS02001644 CONDUIT   1358.19     0  02:15      1.73    4.39    1.00
  YS02001644YS02001647 CONDUIT   1743.42     0  02:15      2.23    1.02    1.00
  YS02001647YS02001649 CONDUIT   1751.49     0  02:15      2.28    0.92    1.00
  YS02001649YS02001757 CONDUIT   1993.97     0  02:16      2.54    1.21    1.00
  YS02001652YS02001649 CONDUIT   1056.33     0  02:25      1.34    0.52    1.00
  YS02001655YS02001652 CONDUIT   1055.64     0  02:25      1.34    0.51    1.00
  YS02001658YS02001655 CONDUIT   1055.54     0  02:25      1.80    0.45    1.00
  YS02001661YS02001658 CONDUIT   1055.22     0  02:25      2.26    0.41    1.00
  YS02001664YS02001661 CONDUIT   1056.05     0  02:25      2.23    0.33    0.83
  YS02001745YS02001748 CONDUIT    657.94     0  02:25      2.11    0.25    0.93
  YS02001748YS02001751 CONDUIT    658.52     0  02:25      1.62    0.33    1.00
  YS02001751YS02001754 CONDUIT    658.37     0  02:25      1.30    0.32    1.00
  YS02001754YS02001757 CONDUIT    658.78     0  02:25      0.84    0.27    1.00
  YS02001757CaochengTiaoxuchi CONDUIT   3485.90     0  02:25      6.92    1.51    0.91
  YS02001759YS02001757 CONDUIT   1449.52     0  02:25      1.85    1.03    1.00
  YS02001762YS02001759 CONDUIT    819.83     0  02:30      1.04    0.94    1.00
  YS02001765YS02001762 CONDUIT    819.40     0  02:30      1.04    0.77    1.00
  YS02001767YS02001765 CONDUIT    819.00     0  02:30      1.04    1.03    1.00
  YS02001770YS02001767 CONDUIT    818.48     0  02:30      1.04    3.24    1.00
  YS02001774YS02001770 CONDUIT    740.96     0  02:25      0.94    0.47    1.00
  YS02001779YS02001774 CONDUIT    741.16     0  02:25      0.94    0.37    1.00
  YS02001783YS02001784 CONDUIT   1167.86     0  02:23      2.32    1.61    1.00
  YS02001784YS02001785 CONDUIT   1168.70     0  02:23      2.33    2.72    1.00
  YS02001786YS02001788 CONDUIT   1169.28     0  02:23      2.49    2.25    0.89
  YS02001788YS02001790 CONDUIT   1182.69     0  02:24      2.74    0.87    0.84
  YS02001790YS02001791 CONDUIT   1293.10     0  02:22      3.43    1.41    0.71
  YS02001791YS02001793 CONDUIT   1253.68     0  02:21      6.41    0.54    0.43
  YS02001793JiankangQianchi CONDUIT   1306.86     0  02:22     24.56    0.10    0.50
  YS02001882YS02001884 CONDUIT     37.61     0  02:13      0.12    0.04    1.00
  YS02001884YS02001887 CONDUIT     42.27     0  02:12      0.09    0.06    1.00
  YS02001887YS02001890 CONDUIT    974.24     0  02:25      1.24    1.67    1.00
  YS02001890YS02001895 CONDUIT    517.68     0  02:25      0.66    0.24    1.00
  YS02001895YS02001898 CONDUIT    517.44     0  02:25      0.66    0.90    1.00
  YS02001898YS02001901 CONDUIT    517.25     0  02:24      0.66    0.33    1.00
  YS02001901YS02001904 CONDUIT    517.29     0  02:25      0.66    0.80    1.00
  YS02001904YS02001907 CONDUIT    517.60     0  02:24      0.66    0.18    1.00
  YS02001907YS02006553 CONDUIT    804.81     0  02:38      0.89    0.95    1.00
  YS02001910YS02001907 CONDUIT   1690.66     0  02:25      2.15    0.95    1.00
  YS02001915YS02001910 CONDUIT   1690.14     0  02:25      2.15    0.84    1.00
  YS02001918YS02001915 CONDUIT    561.32     0  02:25      0.71    0.31    1.00
  YS02001920YS02001918 CONDUIT    561.19     0  02:25      0.71    0.54    1.00
  YS02001923YS02001920 CONDUIT    558.43     0  02:25      0.71    0.25    1.00
  YS02001926YS02001923 CONDUIT    559.84     0  02:25      0.94    0.80    1.00
  YS02001929YS02001926 CONDUIT    559.69     0  02:25      1.08    0.27    1.00
  YS02006553YS02006556 CONDUIT    804.06     0  02:38      1.02    0.69    1.00
  YS02006556YS02006558 CONDUIT    805.04     0  02:38      1.03    0.64    1.00
  YS02006558YS02006561 CONDUIT   1167.93     0  02:23      4.13    2.58    1.00
  YS02006561YS02001783 CONDUIT   1167.61     0  02:23      2.32    0.60    1.00
  YS02163301YS02001633 CONDUIT    984.62     0  02:41      1.25    0.93    1.00
  YS02163601YS02164001 CONDUIT   1358.80     0  02:15      1.73    1.20    1.00
  YS02164001YS02001641 CONDUIT   1358.88     0  02:15      1.73    1.86    1.00
  CC-R1                PUMP       683.00     0  00:00              1.00
  CC-R2                PUMP       683.00     0  00:00              1.00
  CC-S1                PUMP       200.00     0  00:00              1.00
  CC-S2                PUMP       200.00     0  00:00              1.00
  JK-R1                PUMP      1000.00     0  00:00              1.00
  JK-R2                PUMP      1000.00     0  00:00              1.00
  JK-S                 PUMP       300.00     0  00:00              1.00
  
  
  ***************************
  Flow Classification Summary
  ***************************
  
  -------------------------------------------------------------------------------------
                      Adjusted    ---------- Fraction of Time in Flow Class ---------- 
                       /Actual         Up    Down  Sub   Sup   Up    Down  Norm  Inlet 
  Conduit               Length    Dry  Dry   Dry   Crit  Crit  Crit  Crit  Ltd   Ctrl  
  -------------------------------------------------------------------------------------
  1                       1.00   0.00  0.00  0.00  0.00  1.00  0.00  0.00  0.31  0.00
  WS02003060WS02003069    1.00   0.00  0.00  0.00  0.99  0.01  0.00  0.00  0.74  0.00
  WS02003066WSF200        1.00   0.05  0.00  0.00  0.00  0.95  0.00  0.00  0.93  0.00
  WS02003067WS02003066    1.00   0.05  0.00  0.00  0.95  0.00  0.00  0.00  0.00  0.00
  WS02003069WS02003072    1.00   0.00  0.00  0.00  0.99  0.01  0.00  0.00  0.79  0.00
  WS02003072WS02003073    1.00   0.00  0.00  0.00  0.00  0.00  0.00  1.00  0.00  0.00
  WS02004401WS02004402    1.00   0.02  0.00  0.00  0.98  0.00  0.00  0.00  0.00  0.00
  WS02004402WS02004403    1.00   0.02  0.00  0.00  0.98  0.00  0.00  0.00  0.00  0.00
  WS02004403WS02004404    1.00   0.00  0.03  0.00  0.97  0.00  0.00  0.00  0.00  0.00
  WS02004404WS02004405    1.00   0.00  0.00  0.00  1.00  0.00  0.00  0.00  0.00  0.00
  WS02004405WS02004406    1.00   0.00  0.00  0.00  1.00  0.00  0.00  0.00  0.00  0.00
  WS02004406WS02004407    1.00   0.00  0.03  0.00  0.97  0.00  0.00  0.00  0.00  0.00
  WS02004407WS02004409    1.00   0.03  0.00  0.00  0.96  0.01  0.00  0.00  0.96  0.00
  WS02004409WS02004410    1.00   0.03  0.00  0.00  0.96  0.00  0.00  0.00  0.00  0.00
  WS02004410WS02004411    1.00   0.04  0.00  0.00  0.96  0.00  0.00  0.00  0.00  0.00
  WS02004411WS02004412    1.00   0.04  0.00  0.00  0.96  0.00  0.00  0.00  0.00  0.00
  WS02004412WS02004413    1.00   0.04  0.00  0.00  0.96  0.00  0.00  0.00  0.00  0.00
  WS02004413WS02003067    1.00   0.04  0.01  0.00  0.00  0.00  0.95  0.00  0.00  0.00
  WS02006109WS02006110    1.00   0.00  0.01  0.00  0.98  0.00  0.01  0.00  0.00  0.00
  WS02006110WS02006113    1.00   0.01  0.01  0.00  0.98  0.00  0.00  0.00  0.00  0.00
  WS02006111WS02006112    1.00   0.02  0.00  0.00  0.98  0.00  0.00  0.00  0.98  0.00
  WS02006112WS02006115    1.00   0.02  0.00  0.00  0.97  0.00  0.00  0.00  0.00  0.00
  WS02006113WS02006111    1.00   0.02  0.00  0.00  0.00  0.98  0.00  0.00  0.10  0.00
  WS02006115WS02006116    1.00   0.02  0.00  0.00  0.97  0.00  0.00  0.01  0.00  0.00
  WS02006116WS02004401    1.00   0.02  0.00  0.00  0.98  0.00  0.00  0.00  0.00  0.00
  WS02006228WS02006109    1.00   0.00  0.00  0.00  1.00  0.00  0.00  0.00  0.00  0.00
  WS02006229WS02006228    1.00   0.00  0.00  0.00  0.99  0.00  0.00  0.01  0.00  0.00
  WS02006230WS02006229    1.00   0.00  0.00  0.00  0.99  0.00  0.00  0.01  0.02  0.00
  WS02006231WS02006230    1.00   0.00  0.00  0.00  0.22  0.00  0.78  0.00  0.00  0.00
  WS02006232WS02006231    1.00   0.00  0.00  0.00  0.99  0.00  0.00  0.00  0.00  0.00
  WS02006234WS02006232    1.00   0.00  0.00  0.00  1.00  0.00  0.00  0.00  0.02  0.00
  WS02006235WS02006234    1.00   0.00  0.00  0.00  0.92  0.00  0.08  0.00  0.00  0.00
  WS02006238WS02006235    1.00   0.00  0.00  0.00  1.00  0.00  0.00  0.00  0.00  0.00
  WS02006239WS02006238    1.00   0.00  0.00  0.00  1.00  0.00  0.00  0.00  0.07  0.00
  WS02006240WS02006239    1.00   0.00  0.00  0.00  0.91  0.00  0.00  0.09  0.30  0.00
  WS02006242WS02006240    1.00   0.00  0.00  0.00  0.92  0.00  0.08  0.00  0.00  0.00
  WS02006243WS02006242    1.00   0.00  0.00  0.00  0.98  0.00  0.00  0.02  0.63  0.00
  WS02006245WS02006243    1.00   0.00  0.00  0.00  0.70  0.00  0.00  0.30  0.01  0.00
  WS02006247WS02006245    1.00   0.00  0.00  0.00  0.96  0.00  0.00  0.03  0.00  0.00
  WS02006248WS02006247    1.00   0.00  0.00  0.00  0.98  0.00  0.00  0.02  0.41  0.00
  WS02006249WS02006248    1.00   0.00  0.00  0.00  0.42  0.00  0.58  0.00  0.00  0.00
  WS02006251WS02006249    1.00   0.00  0.00  0.00  0.99  0.01  0.00  0.00  0.62  0.00
  WS02006252WS02006251    1.00   0.00  0.70  0.00  0.08  0.00  0.22  0.00  0.00  0.00
  WS02006256WS02006235    1.00   0.00  0.00  0.00  0.95  0.05  0.00  0.00  0.01  0.00
  WSF200WS02003060        1.00   0.00  0.05  0.00  0.38  0.57  0.00  0.00  0.70  0.00
  YS02001580YS02001583    1.00   0.27  0.54  0.00  0.19  0.00  0.00  0.00  0.63  0.00
  YS02001583YS02001586    1.00   0.40  0.35  0.00  0.25  0.00  0.00  0.00  0.63  0.00
  YS02001586YS02001590    1.00   0.13  0.00  0.00  0.46  0.04  0.00  0.37  0.39  0.00
  YS02001590YS02001593    1.00   0.13  0.01  0.00  0.12  0.00  0.75  0.00  0.00  0.00
  YS02001593YS02001596    1.00   0.14  0.00  0.00  0.14  0.01  0.00  0.72  0.02  0.00
  YS02001596YS02001600    1.00   0.14  0.00  0.00  0.21  0.02  0.00  0.64  0.05  0.00
  YS02001600YS02001601    1.00   0.13  0.01  0.00  0.86  0.00  0.00  0.00  0.59  0.00
  YS02001601YS02001602    1.00   0.13  0.01  0.00  0.86  0.00  0.00  0.00  0.00  0.00
  YS02001602YS02001605    1.00   0.14  0.00  0.00  0.86  0.00  0.00  0.00  0.00  0.00
  YS02001605YS02001607    1.00   0.14  0.00  0.00  0.86  0.00  0.00  0.00  0.00  0.00
  YS02001607YS02001610    1.00   0.13  0.01  0.00  0.86  0.00  0.00  0.00  0.01  0.00
  YS02001610YS02001613    1.00   0.13  0.00  0.00  0.87  0.00  0.00  0.00  0.00  0.00
  YS02001613YS02001616    1.00   0.13  0.00  0.00  0.87  0.00  0.00  0.00  0.00  0.00
  YS02001616YS02001619    1.00   0.13  0.00  0.00  0.87  0.00  0.00  0.00  0.00  0.00
  YS02001619YS02001622    1.00   0.13  0.00  0.00  0.87  0.00  0.00  0.00  0.26  0.00
  YS02001622YS02001625    1.00   0.13  0.00  0.00  0.87  0.00  0.00  0.00  0.04  0.00
  YS02001625YS02001629    1.00   0.13  0.05  0.00  0.16  0.00  0.66  0.00  0.00  0.00
  YS02001629YS02163301    1.00   0.15  0.01  0.00  0.83  0.00  0.00  0.00  0.00  0.00
  YS02001633YS02163601    1.00   0.00  0.01  0.00  0.99  0.00  0.00  0.00  0.15  0.00
  YS02001641YS02001644    1.00   0.00  0.01  0.00  0.99  0.00  0.00  0.00  0.00  0.00
  YS02001644YS02001647    1.00   0.00  0.17  0.00  0.83  0.00  0.00  0.00  0.00  0.00
  YS02001647YS02001649    1.00   0.00  0.17  0.00  0.51  0.32  0.00  0.00  0.54  0.00
  YS02001649YS02001757    1.00   0.00  0.00  0.00  0.85  0.15  0.00  0.00  0.72  0.00
  YS02001652YS02001649    1.00   0.00  0.00  0.00  0.96  0.04  0.00  0.00  0.73  0.00
  YS02001655YS02001652    1.00   0.00  0.00  0.00  0.19  0.02  0.00  0.80  0.10  0.00
  YS02001658YS02001655    1.00   0.00  0.14  0.00  0.60  0.26  0.00  0.00  0.74  0.00
  YS02001661YS02001658    1.00   0.14  0.00  0.00  0.44  0.42  0.00  0.00  0.72  0.00
  YS02001664YS02001661    1.00   0.13  0.00  0.00  0.74  0.14  0.00  0.00  0.85  0.00
  YS02001745YS02001748    1.00   0.00  0.00  0.00  0.04  0.01  0.00  0.95  0.02  0.00
  YS02001748YS02001751    1.00   0.00  0.00  0.00  0.75  0.25  0.00  0.00  0.79  0.00
  YS02001751YS02001754    1.00   0.00  0.00  0.00  0.12  0.01  0.00  0.87  0.05  0.00
  YS02001754YS02001757    1.00   0.00  0.00  0.00  1.00  0.00  0.00  0.00  0.84  0.00
  YS02001757CaochengTiaoxuchi    1.00   0.00  0.00  0.00  0.12  0.88  0.00  0.00  0.11  0.00
  YS02001759YS02001757    1.00   0.00  0.00  0.00  1.00  0.00  0.00  0.00  0.63  0.00
  YS02001762YS02001759    1.00   0.00  0.00  0.00  1.00  0.00  0.00  0.00  0.06  0.00
  YS02001765YS02001762    1.00   0.00  0.00  0.00  1.00  0.00  0.00  0.00  0.72  0.00
  YS02001767YS02001765    1.00   0.00  0.00  0.00  1.00  0.00  0.00  0.00  0.00  0.00
  YS02001770YS02001767    1.00   0.00  0.00  0.00  1.00  0.00  0.00  0.00  0.00  0.00
  YS02001774YS02001770    1.00   0.00  0.13  0.00  0.71  0.00  0.15  0.00  0.03  0.00
  YS02001779YS02001774    1.00   0.00  0.00  0.00  1.00  0.00  0.00  0.00  0.78  0.00
  YS02001783YS02001784    1.00   0.00  0.18  0.00  0.82  0.00  0.00  0.00  0.54  0.00
  YS02001784YS02001785    1.00   0.00  0.00  0.00  1.00  0.00  0.00  0.00  0.17  0.00
  YS02001786YS02001788    1.00   0.00  0.00  0.00  0.79  0.21  0.00  0.00  0.00  0.00
  YS02001788YS02001790    1.00   0.00  0.00  0.00  0.22  0.78  0.00  0.00  0.79  0.00
  YS02001790YS02001791    1.00   0.00  0.00  0.00  0.01  0.99  0.00  0.00  0.16  0.00
  YS02001791YS02001793    1.00   0.00  0.00  0.00  0.00  1.00  0.00  0.00  0.01  0.00
  YS02001793JiankangQianchi    1.00   0.00  0.00  0.00  0.00  1.00  0.00  0.00  0.13  0.00
  YS02001882YS02001884    1.00   0.15  0.01  0.00  0.84  0.00  0.00  0.00  0.00  0.00
  YS02001884YS02001887    1.00   0.06  0.05  0.00  0.89  0.00  0.00  0.00  0.00  0.00
  YS02001887YS02001890    1.00   0.00  0.00  0.00  0.97  0.00  0.03  0.00  0.00  0.00
  YS02001890YS02001895    1.00   0.00  0.16  0.00  0.83  0.00  0.00  0.00  0.00  0.00
  YS02001895YS02001898    1.00   0.17  0.00  0.00  0.81  0.00  0.02  0.00  0.00  0.00
  YS02001898YS02001901    1.00   0.17  0.00  0.00  0.83  0.00  0.00  0.00  0.01  0.00
  YS02001901YS02001904    1.00   0.17  0.00  0.00  0.83  0.00  0.00  0.00  0.00  0.00
  YS02001904YS02001907    1.00   0.00  0.16  0.00  0.83  0.00  0.00  0.00  0.00  0.00
  YS02001907YS02006553    1.00   0.00  0.02  0.00  0.98  0.00  0.00  0.00  0.00  0.00
  YS02001910YS02001907    1.00   0.00  0.00  0.00  0.97  0.00  0.00  0.03  0.12  0.00
  YS02001915YS02001910    1.00   0.00  0.00  0.00  0.97  0.03  0.00  0.00  0.16  0.00
  YS02001918YS02001915    1.00   0.00  0.01  0.00  0.98  0.02  0.00  0.00  0.74  0.00
  YS02001920YS02001918    1.00   0.00  0.01  0.00  0.99  0.00  0.00  0.00  0.00  0.00
  YS02001923YS02001920    1.00   0.00  0.00  0.00  1.00  0.00  0.00  0.00  0.92  0.00
  YS02001926YS02001923    1.00   0.00  0.07  0.00  0.06  0.00  0.86  0.00  0.00  0.00
  YS02001929YS02001926    1.00   0.00  0.13  0.00  0.87  0.00  0.00  0.00  0.82  0.00
  YS02006553YS02006556    1.00   0.01  0.00  0.00  0.99  0.00  0.00  0.00  0.03  0.00
  YS02006556YS02006558    1.00   0.00  0.00  0.00  1.00  0.00  0.00  0.00  0.00  0.00
  YS02006558YS02006561    1.00   0.18  0.00  0.00  0.06  0.76  0.00  0.00  0.19  0.00
  YS02006561YS02001783    1.00   0.18  0.00  0.00  0.09  0.72  0.00  0.00  0.68  0.00
  YS02163301YS02001633    1.00   0.00  0.15  0.00  0.85  0.00  0.00  0.00  0.00  0.00
  YS02163601YS02164001    1.00   0.00  0.08  0.00  0.92  0.00  0.00  0.00  0.00  0.00
  YS02164001YS02001641    1.00   0.01  0.08  0.00  0.92  0.00  0.00  0.00  0.06  0.00
  
  
  *************************
  Conduit Surcharge Summary
  *************************
  
  ----------------------------------------------------------------------------
                                                           Hours        Hours 
                         --------- Hours Full --------   Above Full   Capacity
  Conduit                Both Ends  Upstream  Dnstream   Normal Flow   Limited
  ----------------------------------------------------------------------------
  WS02003072WS02003073        0.01      0.01      0.01      0.71         0.01
  WS02004404WS02004405        0.01      0.01      0.01      2.52         0.01
  WS02006109WS02006110        0.01      0.01      1.63      0.01         0.01
  WS02006110WS02006113        0.01      0.01      1.58      0.01         0.01
  WS02006111WS02006112        0.01      0.01      1.73      0.01         0.01
  WS02006112WS02006115        0.01      0.01      0.40      0.01         0.01
  WS02006228WS02006109        1.53      1.63      1.53      2.06         1.53
  WS02006229WS02006228        1.52      1.55      1.52      1.83         1.51
  WS02006230WS02006229        1.71      1.77      1.71      3.39         1.71
  WS02006231WS02006230        0.01      0.01      0.53      2.67         0.01
  WS02006232WS02006231        0.47      0.47      1.63      0.47         0.01
  WS02006234WS02006232        1.48      1.48      1.63      0.03         0.32
  WS02006235WS02006234        1.17      1.17      1.53      2.55         0.21
  WS02006238WS02006235        1.55      1.55      1.66      0.01         0.02
  WS02006239WS02006238        1.59      1.63      1.59      1.75         1.22
  WS02006240WS02006239        1.54      1.56      1.54      1.75         1.24
  WS02006242WS02006240        1.54      1.54      1.70      1.87         0.01
  WS02006243WS02006242        1.57      1.57      1.66      0.01         0.05
  WS02006245WS02006243        1.56      1.57      1.56      1.78         1.38
  WS02006247WS02006245        1.56      1.59      1.56      2.17         1.55
  WS02006248WS02006247        1.56      1.56      1.58      0.01         0.04
  WS02006249WS02006248        1.55      1.55      1.57      2.01         0.01
  WS02006251WS02006249        1.57      1.59      1.57      1.86         1.49
  WS02006252WS02006251        2.11      2.11      2.12      2.13         0.01
  WS02006256WS02006235        1.77      2.59      5.35      0.80         0.14
  YS02001580YS02001583        0.62      0.63      0.66      0.01         0.01
  YS02001583YS02001586        0.63      0.63      0.73      0.01         0.01
  YS02001586YS02001590        0.73      0.73      0.81      0.01         0.01
  YS02001590YS02001593        0.81      0.81      0.83      0.85         0.01
  YS02001593YS02001596        0.82      0.82      0.93      0.01         0.01
  YS02001596YS02001600        0.98      0.98      1.08      0.01         0.01
  YS02001600YS02001601        1.14      1.14      1.44      0.01         0.01
  YS02001601YS02001602        1.32      1.32      1.49      1.11         0.01
  YS02001602YS02001605        1.26      1.26      1.32      2.39         0.01
  YS02001605YS02001607        1.21      1.26      1.21      1.40         1.21
  YS02001607YS02001610        0.74      0.74      0.77      0.01         0.01
  YS02001610YS02001613        0.73      0.73      0.77      0.01         0.01
  YS02001613YS02001616        0.68      0.68      0.73      0.01         0.01
  YS02001616YS02001619        0.67      0.67      0.68      0.01         0.05
  YS02001619YS02001622        0.66      0.67      0.66      0.85         0.64
  YS02001622YS02001625        0.66      0.66      0.87      0.01         0.01
  YS02001625YS02001629        0.56      0.56      0.87      0.01         0.01
  YS02001629YS02163301        0.84      0.84      0.85      0.38         0.37
  YS02001633YS02163601        0.87      0.87      0.90      0.50         0.50
  YS02001641YS02001644        0.67      0.74      0.67      1.53         0.66
  YS02001644YS02001647        0.42      0.42      0.67      0.03         0.01
  YS02001647YS02001649        0.42      0.42      0.45      0.01         0.01
  YS02001649YS02001757        0.43      0.45      0.43      0.41         0.29
  YS02001652YS02001649        0.35      0.35      0.45      0.01         0.01
  YS02001655YS02001652        0.27      0.27      0.33      0.01         0.01
  YS02001658YS02001655        0.20      0.20      0.27      0.01         0.01
  YS02001661YS02001658        0.06      0.06      0.20      0.01         0.01
  YS02001664YS02001661        0.01      0.01      0.10      0.01         0.01
  YS02001745YS02001748        0.01      0.01      0.13      0.01         0.01
  YS02001748YS02001751        0.17      0.17      0.22      0.01         0.01
  YS02001751YS02001754        0.22      0.22      0.27      0.01         0.01
  YS02001754YS02001757        0.28      0.28      0.43      0.01         0.01
  YS02001757CaochengTiaoxuchi        0.01      0.43      0.01      0.55         0.01
  YS02001759YS02001757        0.38      0.38      0.43      0.05         0.06
  YS02001762YS02001759        0.36      0.36      0.38      0.01         0.03
  YS02001765YS02001762        0.35      0.35      0.36      0.01         0.01
  YS02001767YS02001765        0.33      0.33      0.35      0.01         0.05
  YS02001770YS02001767        0.33      0.34      0.33      0.63         0.33
  YS02001774YS02001770        0.33      0.33      0.37      0.01         0.01
  YS02001779YS02001774        0.28      0.28      0.37      0.01         0.01
  YS02001783YS02001784        0.53      0.55      0.53      0.72         0.53
  YS02001784YS02001785        0.42      0.53      0.42      0.97         0.42
  YS02001786YS02001788        0.01      0.42      0.01      0.85         0.01
  YS02001790YS02001791        0.01      0.01      0.01      0.52         0.01
  YS02001882YS02001884        0.50      0.50      0.51      0.01         0.01
  YS02001884YS02001887        0.53      0.53      0.54      0.01         0.01
  YS02001887YS02001890        0.56      0.56      0.57      0.14         0.01
  YS02001890YS02001895        0.49      0.49      0.59      0.01         0.01
  YS02001895YS02001898        0.48      0.48      0.49      0.01         0.01
  YS02001898YS02001901        0.49      0.49      0.53      0.01         0.01
  YS02001901YS02001904        0.52      0.52      0.53      0.01         0.01
  YS02001904YS02001907        0.52      0.52      0.82      0.01         0.01
  YS02001907YS02006553        0.98      0.98      1.06      0.01         0.01
  YS02001910YS02001907        0.59      0.59      0.80      0.01         0.01
  YS02001915YS02001910        0.49      0.49      0.59      0.01         0.01
  YS02001918YS02001915        0.41      0.41      0.49      0.01         0.01
  YS02001920YS02001918        0.41      0.41      0.42      0.01         0.01
  YS02001923YS02001920        0.37      0.37      0.42      0.01         0.01
  YS02001926YS02001923        0.13      0.13      0.18      0.01         0.01
  YS02001929YS02001926        0.01      0.01      0.18      0.01         0.01
  YS02006553YS02006556        0.69      0.69      0.82      0.01         0.01
  YS02006556YS02006558        0.75      0.75      0.84      0.01         0.01
  YS02006558YS02006561        0.44      0.67      0.44      0.93         0.44
  YS02006561YS02001783        0.37      0.37      0.55      0.01         0.01
  YS02163301YS02001633        0.85      0.85      0.90      0.01         0.02
  YS02163601YS02164001        0.76      0.76      0.90      0.32         0.01
  YS02164001YS02001641        0.74      0.76      0.74      0.75         0.55
  
  
  ***************
  Pumping Summary
  ***************
  
  ---------------------------------------------------------------------------------------------------------
                                                  Min       Avg       Max     Total     Power    % Time Off
                        Percent   Number of      Flow      Flow      Flow    Volume     Usage    Pump Curve
  Pump                 Utilized   Start-Ups       LPS       LPS       LPS  10^6 ltr     Kw-hr    Low   High
  ---------------------------------------------------------------------------------------------------------
  CC-R1                   26.88          40      0.00    683.00    683.00     5.232     84.41    0.0  100.0
  CC-R2                   26.88          40      0.00    683.00    683.00     5.232     84.41    0.0  100.0
  CC-S1                   26.88          40      0.00    200.00    200.00     1.532     12.21    0.0   41.7
  CC-S2                   26.88          40      0.00    200.00    200.00     1.532     12.21    0.0   41.7
  JK-R1                   10.66        1230      0.00    908.89   1000.00     2.369      5.52    0.0    0.0
  JK-R2                   10.66        1230      0.00    908.89   1000.00     2.369      5.52    0.0    0.0
  JK-S                    10.66        1230      0.00    295.28    300.00     0.863     19.83    0.0    0.0
  

  Analysis begun on:  Wed Feb 26 11:09:28 2025
  Analysis ended on:  Wed Feb 26 11:09:29 2025
  Total elapsed time: 00:00:01