
  EPA STORM WATER MANAGEMENT MODEL - VERSION 5.2 (Build 5.2.4)
  PYSWMM TOOLKIT API - VERSION v1.0 (2023-11-27)
  ------------------------------------------------------------

  WARNING 04: minimum elevation drop used for Conduit WS02004404WS02004405
  WARNING 03: negative offset ignored for Link YS02001904YS02001907
  
  ****************
  Analysis Options
  ****************
  Flow Units ............... LPS
  Process Models:
    Rainfall/Runoff ........ YES
    RDII ................... NO
    Snowmelt ............... NO
    Groundwater ............ NO
    Flow Routing ........... YES
    Ponding Allowed ........ NO
    Water Quality .......... NO
  Infiltration Method ...... HORTON
  Flow Routing Method ...... DYNWAVE
  Surcharge Method ......... EXTRAN
  Starting Date ............ 08/28/2015 08:00:00
  Ending Date .............. 08/28/2015 16:00:00
  Antecedent Dry Days ...... 8.0
  Report Time Step ......... 00:01:00
  Wet Time Step ............ 00:01:00
  Dry Time Step ............ 00:01:00
  Routing Time Step ........ 30.00 sec
  Variable Time Step ....... YES
  Maximum Trials ........... 8
  Number of Threads ........ 4
  Head Tolerance ........... 0.001500 m
  
  
  **************************        Volume         Depth
  Runoff Quantity Continuity     hectare-m            mm
  **************************     ---------       -------
  Total Precipitation ......         2.718        81.936
  Evaporation Loss .........         0.000         0.000
  Infiltration Loss ........         0.104         3.146
  Surface Runoff ...........         2.581        77.811
  Final Storage ............         0.033         0.998
  Continuity Error (%) .....        -0.024
  
  
  **************************        Volume        Volume
  Flow Routing Continuity        hectare-m      10^6 ltr
  **************************     ---------     ---------
  Dry Weather Inflow .......         0.025         0.248
  Wet Weather Inflow .......         2.581        25.807
  Groundwater Inflow .......         0.000         0.000
  RDII Inflow ..............         0.000         0.000
  External Inflow ..........         0.083         0.825
  External Outflow .........         2.112        21.116
  Flooding Loss ............         0.918         9.185
  Evaporation Loss .........         0.000         0.000
  Exfiltration Loss ........         0.000         0.000
  Initial Stored Volume ....         0.243         2.431
  Final Stored Volume ......         0.038         0.381
  Continuity Error (%) .....        -4.680
  
  
  *************************
  Highest Continuity Errors
  *************************
  Node JK-storage (-26.00%)
  Node WS02006256 (-14.87%)
  Node YS02001884 (5.31%)
  Node YS02001583 (-3.19%)
  
  
  ***************************
  Time-Step Critical Elements
  ***************************
  Link YS02001793JiankangQianchi (39.74%)
  Link WS02006238WS02006235 (29.98%)
  Link WS02004404WS02004405 (5.95%)
  Link WS02003066WSF200 (5.34%)
  Link WS02006235WS02006234 (4.67%)
  
  
  ********************************
  Highest Flow Instability Indexes
  ********************************
  Link WS02006256WS02006235 (58)
  Link WS02006252WS02006251 (46)
  Link WS02006235WS02006234 (41)
  Link WS02006238WS02006235 (39)
  Link WS02006113WS02006111 (37)
  
  
  *********************************
  Most Frequent Nonconverging Nodes
  *********************************
  Node CC-1 (50.12%)
  Node CC-2 (50.12%)
  Node JK-1 (50.12%)
  Node JK-2 (50.12%)
  Node WSC (50.12%)
  
  
  *************************
  Routing Time Step Summary
  *************************
  Minimum Time Step           :     0.00 sec
  Average Time Step           :     2.60 sec
  Maximum Time Step           :     6.43 sec
  % of Time in Steady State   :     0.00
  Average Iterations per Step :     5.60
  % of Steps Not Converging   :    50.12
  Time Step Frequencies       :
     30.000 - 13.228 sec      :     0.00 %
     13.228 -  5.833 sec      :     6.08 %
      5.833 -  2.572 sec      :    34.75 %
      2.572 -  1.134 sec      :    38.06 %
      1.134 -  0.500 sec      :    21.11 %
  
  
  ***************************
  Subcatchment Runoff Summary
  ***************************
  
  ------------------------------------------------------------------------------------------------------------------------------
                            Total      Total      Total      Total     Imperv       Perv      Total       Total     Peak  Runoff
                           Precip      Runon       Evap      Infil     Runoff     Runoff     Runoff      Runoff   Runoff   Coeff
  Subcatchment                 mm         mm         mm         mm         mm         mm         mm    10^6 ltr      LPS
  ------------------------------------------------------------------------------------------------------------------------------
  sub60                     81.94       0.00       0.00       1.85      70.91       7.98      78.89        1.04   771.42   0.963
  sub61                     81.94       0.00       0.00       2.70      66.88      11.24      78.12        1.43  1073.73   0.953
  sub62                     81.94       0.00       0.00       1.24      74.10       5.32      79.42        2.18  1520.17   0.969
  sub63                     81.94       0.00       0.00       5.03      57.21      18.74      75.95        1.72  1237.58   0.927
  sub64                     81.94       0.00       0.00       2.53      68.44       9.76      78.20        1.88  1256.42   0.954
  sub65                     81.94       0.00       0.00       2.19      70.03       8.46      78.49        2.16  1405.43   0.958
  sub66                     81.94       0.00       0.00       6.30      57.10      17.46      74.55        3.48  1921.28   0.910
  sub67                     81.94       0.00       0.00       1.18      74.15       5.37      79.52        1.48  1141.56   0.971
  sub68                     81.94       0.00       0.00       2.24      69.28       9.24      78.52        2.16  1558.53   0.958
  sub69                     81.94       0.00       0.00       2.03      69.54      10.26      79.80        2.95  1866.82   0.974
  sub70                     81.94       0.00       0.00       6.88      53.91      20.98      74.89        2.16  1080.85   0.914
  sub71                     81.94       0.00       0.00       1.27      74.05       5.28      79.34        2.07  1353.04   0.968
  sub72                     81.94       0.00       0.00       1.13      74.79       4.60      79.40        1.09   659.01   0.969
  
  
  ******************
  Node Depth Summary
  ******************
  
  ---------------------------------------------------------------------------------
                                 Average  Maximum  Maximum  Time of Max    Reported
                                   Depth    Depth      HGL   Occurrence   Max Depth
  Node                 Type       Meters   Meters   Meters  days hr:min      Meters
  ---------------------------------------------------------------------------------
  WS02003060           JUNCTION     0.23     0.37     5.30     0  02:31        0.37
  WS02003066           JUNCTION     0.19     0.29     5.84     0  02:30        0.29
  WS02003067           JUNCTION     0.48     0.69     6.01     0  02:30        0.69
  WS02003069           JUNCTION     0.25     0.41     5.00     0  02:31        0.41
  WS02003072           JUNCTION     0.31     0.48     4.86     0  02:32        0.48
  WS02003073           JUNCTION     0.17     0.29     4.35     0  02:33        0.29
  WS02004401           JUNCTION     0.58     0.82     6.82     0  02:27        0.82
  WS02004402           JUNCTION     0.61     0.85     6.81     0  02:28        0.85
  WS02004403           JUNCTION     0.63     0.87     6.80     0  02:28        0.87
  WS02004404           JUNCTION     0.70     0.94     6.79     0  02:28        0.94
  WS02004405           JUNCTION     0.70     0.93     6.78     0  02:28        0.93
  WS02004406           JUNCTION     0.71     0.94     6.77     0  02:28        0.94
  WS02004407           JUNCTION     0.17     0.29     6.60     0  02:28        0.29
  WS02004409           JUNCTION     0.38     0.64     6.41     0  02:29        0.64
  WS02004410           JUNCTION     0.40     0.66     6.38     0  02:29        0.66
  WS02004411           JUNCTION     0.42     0.67     6.35     0  02:29        0.67
  WS02004412           JUNCTION     0.44     0.68     6.32     0  02:29        0.68
  WS02004413           JUNCTION     0.60     0.84     6.31     0  02:30        0.84
  WS02006109           JUNCTION     0.65     0.94     7.56     0  02:19        0.93
  WS02006110           JUNCTION     0.65     0.90     7.48     0  02:19        0.90
  WS02006111           JUNCTION     0.18     0.28     6.98     0  02:20        0.28
  WS02006112           JUNCTION     0.74     1.03     6.91     0  02:22        1.02
  WS02006113           JUNCTION     0.27     0.44     7.33     0  02:20        0.44
  WS02006115           JUNCTION     0.46     0.72     6.86     0  02:27        0.72
  WS02006116           JUNCTION     0.55     0.80     6.84     0  02:27        0.80
  WS02006228           JUNCTION     0.65     0.98     7.63     0  02:19        0.96
  WS02006229           JUNCTION     0.62     0.97     7.67     0  02:19        0.95
  WS02006230           JUNCTION     0.62     1.05     7.79     0  02:19        1.02
  WS02006231           JUNCTION     0.43     1.22     8.34     0  02:34        0.81
  WS02006232           JUNCTION     0.56     1.99     9.03     0  02:56        1.99
  WS02006234           JUNCTION     0.49     1.96     9.12     0  02:19        1.96
  WS02006235           JUNCTION     0.53     2.00     9.16     0  02:07        2.00
  WS02006238           JUNCTION     0.56     2.15     9.29     0  02:07        2.15
  WS02006239           JUNCTION     0.53     2.03     9.24     0  02:07        2.03
  WS02006240           JUNCTION     0.50     2.10     9.39     0  02:07        2.10
  WS02006242           JUNCTION     0.57     1.55     8.82     0  02:07        1.55
  WS02006243           JUNCTION     0.50     1.48     8.90     0  02:56        1.48
  WS02006245           JUNCTION     0.51     1.33     8.82     0  02:19        1.32
  WS02006247           JUNCTION     0.53     1.28     8.78     0  02:19        1.22
  WS02006248           JUNCTION     0.50     1.10     8.69     0  02:07        1.10
  WS02006249           JUNCTION     0.53     1.09     8.69     0  02:07        1.09
  WS02006251           JUNCTION     0.53     1.14     8.81     0  02:45        1.12
  WS02006252           JUNCTION     0.34     1.50     9.74     0  00:00        0.79
  WS02006256           JUNCTION     0.98     2.35     9.28     0  00:00        2.35
  WSF200               JUNCTION     0.16     0.28     5.51     0  02:30        0.28
  YS02001580           JUNCTION     0.18     1.05     9.59     0  02:06        1.05
  YS02001583           JUNCTION     0.22     1.08     9.57     0  02:06        0.84
  YS02001586           JUNCTION     0.34     1.13     9.30     0  02:06        1.13
  YS02001590           JUNCTION     0.46     1.40     9.26     0  02:07        1.40
  YS02001593           JUNCTION     0.39     1.46     9.32     0  02:07        1.46
  YS02001596           JUNCTION     0.53     1.80     9.22     0  02:07        1.80
  YS02001600           JUNCTION     0.64     1.87     9.00     0  02:06        1.87
  YS02001601           JUNCTION     0.82     2.06     8.90     0  02:06        2.06
  YS02001602           JUNCTION     0.72     1.87     8.77     0  02:11        1.87
  YS02001605           JUNCTION     0.66     1.78     8.68     0  02:13        1.78
  YS02001607           JUNCTION     0.61     1.66     8.50     0  02:34        1.66
  YS02001610           JUNCTION     0.65     1.68     8.48     0  02:12        1.68
  YS02001613           JUNCTION     0.61     1.70     8.54     0  02:19        1.70
  YS02001616           JUNCTION     0.54     1.61     8.52     0  02:21        1.61
  YS02001619           JUNCTION     0.52     1.61     8.54     0  02:19        1.61
  YS02001622           JUNCTION     0.51     1.59     8.49     0  02:24        1.58
  YS02001625           JUNCTION     0.75     1.78     8.38     0  02:12        1.78
  YS02001629           JUNCTION     0.65     1.85     8.40     0  02:14        1.85
  YS02001633           JUNCTION     0.72     2.08     8.53     0  02:19        2.08
  YS02001641           JUNCTION     0.67     1.98     8.42     0  02:19        1.98
  YS02001644           JUNCTION     0.66     1.92     8.35     0  02:16        1.92
  YS02001647           JUNCTION     0.43     1.78     8.39     0  02:19        1.78
  YS02001649           JUNCTION     0.48     2.01     8.40     0  02:24        2.01
  YS02001652           JUNCTION     0.35     1.88     8.47     0  02:24        1.88
  YS02001655           JUNCTION     0.26     1.71     8.56     0  02:24        1.71
  YS02001658           JUNCTION     0.20     1.50     8.64     0  02:24        1.49
  YS02001661           JUNCTION     0.21     1.31     8.71     0  02:24        1.30
  YS02001664           JUNCTION     0.10     0.83     8.75     0  02:24        0.80
  YS02001745           JUNCTION     0.11     0.92     8.44     0  02:24        0.92
  YS02001748           JUNCTION     0.17     1.59     8.67     0  02:17        1.33
  YS02001751           JUNCTION     0.21     1.74     8.61     0  02:15        1.50
  YS02001754           JUNCTION     0.29     1.76     8.36     0  02:17        1.74
  YS02001757           JUNCTION     0.48     2.06     8.32     0  02:24        2.06
  YS02001759           JUNCTION     0.42     2.10     8.47     0  02:24        2.10
  YS02001762           JUNCTION     0.41     2.06     8.46     0  02:19        2.06
  YS02001765           JUNCTION     0.39     1.99     8.44     0  02:24        1.99
  YS02001767           JUNCTION     0.38     1.97     8.46     0  02:19        1.97
  YS02001770           JUNCTION     0.39     1.95     8.44     0  02:19        1.95
  YS02001774           JUNCTION     0.45     2.03     8.45     0  02:19        2.03
  YS02001779           JUNCTION     0.28     1.68     8.37     0  02:14        1.68
  YS02001783           JUNCTION     0.38     1.29     7.43     0  02:13        1.25
  YS02001784           JUNCTION     0.38     1.16     7.23     0  02:34        1.16
  YS02001786           JUNCTION     0.32     0.89     6.92     0  02:24        0.88
  YS02001788           JUNCTION     0.23     0.63     6.60     0  02:23        0.63
  YS02001790           JUNCTION     0.27     0.73     6.37     0  02:24        0.72
  YS02001791           JUNCTION     0.16     0.44     5.91     0  02:24        0.43
  YS02001793           JUNCTION     0.10     0.26     5.09     0  02:25        0.26
  YS02001882           JUNCTION     0.47     1.70     8.42     0  02:24        1.70
  YS02001884           JUNCTION     0.56     1.80     8.42     0  02:24        1.80
  YS02001887           JUNCTION     0.63     1.89     8.43     0  02:24        1.89
  YS02001890           JUNCTION     0.66     1.81     8.32     0  02:15        1.81
  YS02001895           JUNCTION     0.44     1.57     8.31     0  02:29        1.56
  YS02001898           JUNCTION     0.45     1.57     8.30     0  02:19        1.56
  YS02001901           JUNCTION     0.55     1.68     8.29     0  02:18        1.67
  YS02001904           JUNCTION     0.53     1.64     8.27     0  02:19        1.64
  YS02001907           JUNCTION     0.84     1.96     8.25     0  02:13        1.96
  YS02001910           JUNCTION     0.66     2.01     8.52     0  02:25        2.01
  YS02001915           JUNCTION     0.49     2.00     8.72     0  02:24        2.00
  YS02001918           JUNCTION     0.31     1.81     8.88     0  02:14        1.70
  YS02001920           JUNCTION     0.39     2.09     9.10     0  02:14        1.80
  YS02001923           JUNCTION     0.25     2.02     9.28     0  02:14        1.56
  YS02001926           JUNCTION     0.26     1.90     9.35     0  02:14        1.41
  YS02001929           JUNCTION     0.17     1.78     9.47     0  02:14        1.19
  YS02006553           JUNCTION     0.84     2.03     8.31     0  02:19        2.03
  YS02006556           JUNCTION     0.81     2.01     8.32     0  02:19        2.01
  YS02006558           JUNCTION     0.85     2.16     8.43     0  02:19        2.16
  YS02006561           JUNCTION     0.24     0.98     7.64     0  02:13        0.91
  YS02163301           JUNCTION     0.67     2.00     8.51     0  02:19        2.00
  YS02163601           JUNCTION     0.74     2.08     8.48     0  02:19        2.08
  YS02164001           JUNCTION     0.67     1.96     8.41     0  02:24        1.96
  CC-1                 OUTFALL      0.00     0.00     0.00     0  00:00        0.00
  CC-2                 OUTFALL      0.00     0.00     0.00     0  00:00        0.00
  JK-1                 OUTFALL      0.00     0.00     0.00     0  00:00        0.00
  JK-2                 OUTFALL      0.00     0.00     0.00     0  00:00        0.00
  WSC                  OUTFALL      0.17     0.29     0.96     0  02:33        0.29
  CC-storage           STORAGE      0.29     1.08     6.58     0  02:53        1.08
  JK-storage           STORAGE      0.02     2.99     3.79     0  00:00        0.68
  
  
  *******************
  Node Inflow Summary
  *******************
  
  -------------------------------------------------------------------------------------------------
                                  Maximum  Maximum                  Lateral       Total        Flow
                                  Lateral    Total  Time of Max      Inflow      Inflow     Balance
                                   Inflow   Inflow   Occurrence      Volume      Volume       Error
  Node                 Type           LPS      LPS  days hr:min    10^6 ltr    10^6 ltr     Percent
  -------------------------------------------------------------------------------------------------
  WS02003060           JUNCTION     16.53   516.62     0  02:30       0.471        4.59       0.056
  WS02003066           JUNCTION      0.00   499.93     0  02:30           0        4.13       0.039
  WS02003067           JUNCTION      0.00   499.86     0  02:30           0        4.13       0.105
  WS02003069           JUNCTION      0.32   516.75     0  02:31     0.00912         4.6       0.100
  WS02003072           JUNCTION      0.00   516.52     0  02:32           0         4.6       0.173
  WS02003073           JUNCTION      1.82   518.26     0  02:32      0.0519        4.64       0.137
  WS02004401           JUNCTION      0.00   501.37     0  02:27           0        4.24       0.257
  WS02004402           JUNCTION      0.00   500.86     0  02:28           0        4.23       0.259
  WS02004403           JUNCTION      0.00   500.89     0  02:28           0        4.22       0.252
  WS02004404           JUNCTION      0.16   500.87     0  02:28     0.00462        4.21       0.209
  WS02004405           JUNCTION      0.04   500.68     0  02:28     0.00109         4.2       0.307
  WS02004406           JUNCTION      0.00   500.71     0  02:25           0        4.19       0.520
  WS02004407           JUNCTION      0.00   500.49     0  02:28           0        4.17       0.034
  WS02004409           JUNCTION      0.00   500.38     0  02:28           0        4.17       0.077
  WS02004410           JUNCTION      0.00   500.29     0  02:29           0        4.16       0.122
  WS02004411           JUNCTION      0.00   500.18     0  02:29           0        4.16       0.149
  WS02004412           JUNCTION      0.00   500.10     0  02:29           0        4.15       0.194
  WS02004413           JUNCTION      0.00   500.15     0  02:29           0        4.14       0.355
  WS02006109           JUNCTION      1.23   505.64     0  02:19      0.0351        4.29       0.267
  WS02006110           JUNCTION      0.00   505.85     0  02:19           0        4.28       0.175
  WS02006111           JUNCTION      0.00   520.10     0  02:25           0        4.27       0.033
  WS02006112           JUNCTION      0.00   504.49     0  02:20           0        4.27       0.494
  WS02006113           JUNCTION      0.00   504.84     0  02:19           0        4.27       0.047
  WS02006115           JUNCTION      0.00   508.46     0  02:27           0        4.25       0.182
  WS02006116           JUNCTION      0.00   502.66     0  02:27           0        4.24       0.082
  WS02006228           JUNCTION      0.00   504.63     0  02:19           0        4.26       0.118
  WS02006229           JUNCTION      0.00   503.80     0  02:19           0        4.27       0.122
  WS02006230           JUNCTION     10.28   547.46     0  02:19       0.293        4.27       0.152
  WS02006231           JUNCTION      0.00   526.72     0  02:19           0        3.98       0.074
  WS02006232           JUNCTION      0.00   521.74     0  02:34           0        3.99       0.175
  WS02006234           JUNCTION      0.00   516.50     0  02:19           0        3.98      -0.343
  WS02006235           JUNCTION      0.00   512.22     0  02:24           0        4.15       0.207
  WS02006238           JUNCTION      0.00   416.72     0  02:56           0         3.5       0.117
  WS02006239           JUNCTION      0.00   415.80     0  02:55           0        3.36      -0.107
  WS02006240           JUNCTION      0.00   414.79     0  02:55           0        3.32      -0.074
  WS02006242           JUNCTION      0.00   414.92     0  02:55           0        3.32      -0.017
  WS02006243           JUNCTION      0.00   415.11     0  02:55           0        3.31      -0.255
  WS02006245           JUNCTION      0.00   417.67     0  02:04           0        3.32       0.475
  WS02006247           JUNCTION      0.00   431.65     0  02:01           0        3.32      -0.047
  WS02006248           JUNCTION      0.00   422.42     0  02:01           0        3.32      -0.209
  WS02006249           JUNCTION      0.00   464.45     0  01:57           0        3.37       0.740
  WS02006251           JUNCTION      0.08   405.79     0  01:45     0.00219        3.37       0.038
  WS02006252           JUNCTION      0.00   400.00     0  00:00           0        3.35      -0.560
  WS02006256           JUNCTION      0.00   300.00     0  00:00           0       0.926     -12.943
  WSF200               JUNCTION      0.00   499.91     0  02:30           0        4.12       0.015
  YS02001580           JUNCTION      0.00    71.80     0  02:06           0     0.00414       0.181
  YS02001583           JUNCTION      0.00   110.35     0  02:06           0      0.0157      -3.091
  YS02001586           JUNCTION   1080.85  1080.87     0  02:26        2.16        2.18       0.045
  YS02001590           JUNCTION      0.00   317.80     0  02:28           0        1.49      -0.035
  YS02001593           JUNCTION      0.00   317.85     0  02:34           0         1.5       0.014
  YS02001596           JUNCTION      0.00   317.82     0  02:36           0         1.5       0.003
  YS02001600           JUNCTION      0.00   317.84     0  02:25           0         1.5       0.025
  YS02001601           JUNCTION   1866.82  2184.40     0  02:25        2.95        4.45       0.022
  YS02001602           JUNCTION      0.00   509.37     0  02:52           0        2.53       0.021
  YS02001605           JUNCTION      0.00   509.62     0  02:51           0        2.41       0.026
  YS02001607           JUNCTION      0.00   509.56     0  02:52           0        2.41       0.086
  YS02001610           JUNCTION      0.00   947.28     0  02:28           0        2.88       0.088
  YS02001613           JUNCTION      0.00   610.74     0  02:29           0        2.36       0.066
  YS02001616           JUNCTION      0.00   610.91     0  02:28           0        2.36       0.024
  YS02001619           JUNCTION   1921.28  1921.28     0  02:26        3.48        5.36       0.002
  YS02001622           JUNCTION      0.00  1053.62     0  02:27           0        4.83       0.004
  YS02001625           JUNCTION      0.00  1504.87     0  02:29           0        5.16       0.173
  YS02001629           JUNCTION      0.00   991.81     0  02:43           0        4.09       0.029
  YS02001633           JUNCTION   1405.63  1405.63     0  02:25        2.17        5.84       0.062
  YS02001641           JUNCTION      0.00  1347.02     0  02:12           0        5.43       0.054
  YS02001644           JUNCTION   1256.46  1935.76     0  02:25        1.88        7.31       0.048
  YS02001647           JUNCTION      0.00  1722.25     0  02:13           0        6.53       0.007
  YS02001649           JUNCTION      0.00  1991.98     0  02:13           0        8.26       0.005
  YS02001652           JUNCTION      0.00  1246.31     0  02:25           0        1.73      -0.051
  YS02001655           JUNCTION      0.15  1245.88     0  02:25     0.00439        1.73       0.031
  YS02001658           JUNCTION      0.00  1246.40     0  02:25           0        1.72       0.000
  YS02001661           JUNCTION      0.00  1245.43     0  02:25           0        1.72       0.017
  YS02001664           JUNCTION   1237.58  1237.58     0  02:25        1.72        1.72      -0.005
  YS02001745           JUNCTION    771.43   771.43     0  02:25        1.04        1.04       0.073
  YS02001748           JUNCTION      0.04   776.08     0  02:25     0.00128        1.04      -0.095
  YS02001751           JUNCTION      0.01   776.43     0  02:25    0.000313        1.04      -0.003
  YS02001754           JUNCTION      0.26   776.51     0  02:25     0.00741        1.05      -0.069
  YS02001757           JUNCTION      0.00  3576.47     0  02:25           0        12.5       0.044
  YS02001759           JUNCTION   1073.77  1508.71     0  02:25        1.43        3.24      -0.002
  YS02001762           JUNCTION      0.00   828.60     0  02:31           0         1.8       0.009
  YS02001765           JUNCTION      0.00   828.29     0  02:31           0         1.8       0.010
  YS02001767           JUNCTION      0.54   828.06     0  02:31      0.0152         1.8       0.009
  YS02001770           JUNCTION   1520.33  1520.33     0  02:25        2.18        2.22      -0.003
  YS02001774           JUNCTION      0.00   849.42     0  02:26           0       0.422       0.314
  YS02001779           JUNCTION      0.01   849.67     0  02:26    0.000142       0.379      -0.058
  YS02001783           JUNCTION      0.00  1170.67     0  02:24           0        4.53       0.007
  YS02001784           JUNCTION      1.06  1171.39     0  02:24      0.0302        4.56       0.012
  YS02001786           JUNCTION      0.06  1171.95     0  02:24      0.0016        4.56       0.016
  YS02001788           JUNCTION      0.07  1172.47     0  02:24     0.00202        4.56       0.006
  YS02001790           JUNCTION      0.15  1180.81     0  02:22     0.00442        4.57      -0.001
  YS02001791           JUNCTION      0.00  1300.30     0  02:24           0        4.57      -0.000
  YS02001793           JUNCTION      0.00  1258.23     0  02:25           0        4.57       0.012
  YS02001882           JUNCTION      0.00    34.62     0  02:10           0      0.0125       5.591
  YS02001884           JUNCTION      0.00    38.23     0  02:09           0      0.0481       5.611
  YS02001887           JUNCTION   1142.01  1142.01     0  02:25        1.49        1.52       0.297
  YS02001890           JUNCTION      0.00  1141.93     0  02:25           0        1.48       0.348
  YS02001895           JUNCTION      0.00   517.68     0  02:30           0        1.25       0.136
  YS02001898           JUNCTION      0.00   517.80     0  02:22           0        1.25       0.024
  YS02001901           JUNCTION      0.00   517.85     0  02:27           0        1.25       0.267
  YS02001904           JUNCTION      0.00   517.69     0  02:30           0        1.25       0.232
  YS02001907           JUNCTION      0.00  2892.68     0  02:25           0        4.58       0.396
  YS02001910           JUNCTION      0.00  1992.10     0  02:26           0        3.25       0.223
  YS02001915           JUNCTION   1353.06  2017.05     0  02:25        2.08        3.27       0.051
  YS02001918           JUNCTION      0.00   664.57     0  02:25           0        1.21       0.019
  YS02001920           JUNCTION      2.87   664.57     0  02:25      0.0818         1.2       0.085
  YS02001923           JUNCTION      0.04   661.02     0  02:25     0.00107        1.11      -0.010
  YS02001926           JUNCTION      0.05   660.32     0  02:25     0.00149         1.1       0.014
  YS02001929           JUNCTION    659.01   659.01     0  02:25        1.09        1.09      -0.035
  YS02006553           JUNCTION      0.00   805.96     0  02:40           0        2.56       0.468
  YS02006556           JUNCTION      0.00   805.32     0  02:40           0        2.57       0.321
  YS02006558           JUNCTION   1559.41  1559.41     0  02:25        2.19        4.64       0.074
  YS02006561           JUNCTION      0.00  1170.16     0  02:24           0        4.53       0.002
  YS02163301           JUNCTION      0.00   992.21     0  02:43           0        4.09       0.042
  YS02163601           JUNCTION      0.11  1347.52     0  02:12     0.00313        5.43       0.096
  YS02164001           JUNCTION      0.00  1347.58     0  02:12           0        5.43       0.048
  CC-1                 OUTFALL       0.00   683.00     0  00:00           0        5.72       0.000
  CC-2                 OUTFALL       0.00   683.00     0  00:00           0        5.72       0.000
  JK-1                 OUTFALL       0.00  1000.00     0  00:00           0        2.52       0.000
  JK-2                 OUTFALL       0.00  1000.00     0  00:00           0        2.52       0.000
  WSC                  OUTFALL       0.00   518.16     0  02:33           0        4.63       0.000
  CC-storage           STORAGE       0.00  3576.32     0  02:25           0        14.8      -0.331
  JK-storage           STORAGE       0.00  1307.75     0  02:25           0        4.72     -20.637
  
  
  **********************
  Node Surcharge Summary
  **********************
  
  Surcharging occurs when water rises above the top of the highest conduit.
  ---------------------------------------------------------------------
                                               Max. Height   Min. Depth
                                   Hours       Above Crown    Below Rim
  Node                 Type      Surcharged         Meters       Meters
  ---------------------------------------------------------------------
  WS02006109           JUNCTION        1.73          0.118        1.702
  WS02006112           JUNCTION        0.52          0.027        1.653
  WS02006228           JUNCTION        1.72          0.148        2.052
  WS02006229           JUNCTION        1.76          0.172        2.278
  WS02006231           JUNCTION        0.56          0.507        1.023
  WS02006232           JUNCTION        1.84          1.293        0.187
  WS02006234           JUNCTION        1.32          1.240        0.000
  WS02006235           JUNCTION        1.74          1.290        0.000
  WS02006238           JUNCTION        1.80          1.430        0.000
  WS02006239           JUNCTION        1.75          1.290        0.000
  WS02006240           JUNCTION        1.75          1.390        0.000
  WS02006242           JUNCTION        1.87          0.820        0.000
  WS02006243           JUNCTION        1.77          0.770        0.000
  WS02006245           JUNCTION        1.77          0.623        0.227
  WS02006247           JUNCTION        1.79          0.567        0.193
  WS02006248           JUNCTION        1.76          0.380        0.000
  WS02006249           JUNCTION        1.78          0.390        0.000
  WS02006251           JUNCTION        0.75          0.108        1.072
  WS02006252           JUNCTION        2.32          1.100        0.000
  WS02006256           JUNCTION        6.67          2.050        0.000
  YS02001580           JUNCTION        0.73          0.450        0.000
  YS02001583           JUNCTION        0.74          0.439        0.061
  YS02001586           JUNCTION        0.84          0.510        0.000
  YS02001590           JUNCTION        0.93          0.750        0.000
  YS02001593           JUNCTION        0.92          0.840        0.000
  YS02001596           JUNCTION        1.05          1.070        0.000
  YS02001600           JUNCTION        1.20          1.190        0.000
  YS02001601           JUNCTION        1.57          1.440        0.000
  YS02001602           JUNCTION        1.45          1.270        0.000
  YS02001605           JUNCTION        1.39          1.180        0.000
  YS02001607           JUNCTION        0.86          0.657        0.023
  YS02001610           JUNCTION        0.89          0.680        0.000
  YS02001613           JUNCTION        0.84          0.700        0.000
  YS02001616           JUNCTION        0.80          0.610        0.000
  YS02001619           JUNCTION        0.78          0.610        0.000
  YS02001622           JUNCTION        0.77          0.585        0.035
  YS02001625           JUNCTION        0.99          0.780        0.000
  YS02001629           JUNCTION        0.67          0.470        0.000
  YS02001633           JUNCTION        0.99          1.060        0.000
  YS02001641           JUNCTION        0.86          0.980        0.120
  YS02001644           JUNCTION        0.79          0.920        0.000
  YS02001647           JUNCTION        0.50          0.780        0.120
  YS02001649           JUNCTION        0.56          1.012        0.038
  YS02001652           JUNCTION        0.42          0.846        0.284
  YS02001655           JUNCTION        0.34          0.706        0.494
  YS02001658           JUNCTION        0.26          0.500        0.800
  YS02001661           JUNCTION        0.10          0.240        1.150
  YS02001748           JUNCTION        0.17          0.509        0.681
  YS02001751           JUNCTION        0.28          0.736        0.464
  YS02001754           JUNCTION        0.34          0.705        0.445
  YS02001757           JUNCTION        0.54          1.060        0.150
  YS02001759           JUNCTION        0.47          1.105        0.105
  YS02001762           JUNCTION        0.45          1.059        0.091
  YS02001765           JUNCTION        0.43          0.993        0.107
  YS02001767           JUNCTION        0.42          0.975        0.055
  YS02001770           JUNCTION        0.41          0.920        0.000
  YS02001774           JUNCTION        0.45          1.030        0.020
  YS02001779           JUNCTION        0.35          0.680        0.000
  YS02001783           JUNCTION        0.64          0.490        1.110
  YS02001784           JUNCTION        0.62          0.360        1.130
  YS02001786           JUNCTION        0.50          0.091        1.339
  YS02001882           JUNCTION        0.58          0.703        0.127
  YS02001884           JUNCTION        0.59          0.741        0.129
  YS02001887           JUNCTION        0.63          0.841        0.109
  YS02001890           JUNCTION        0.65          0.760        0.000
  YS02001895           JUNCTION        0.57          0.567        0.183
  YS02001898           JUNCTION        0.56          0.535        0.205
  YS02001901           JUNCTION        0.62          0.677        0.193
  YS02001904           JUNCTION        0.61          0.640        0.210
  YS02001907           JUNCTION        0.92          0.950        0.000
  YS02001910           JUNCTION        0.67          1.014        0.086
  YS02001915           JUNCTION        0.58          1.000        0.000
  YS02001918           JUNCTION        0.49          0.810        0.000
  YS02001920           JUNCTION        0.50          1.090        0.050
  YS02001923           JUNCTION        0.19          0.813        0.007
  YS02001926           JUNCTION        0.22          0.900        0.000
  YS02001929           JUNCTION        0.09          0.780        0.000
  YS02006553           JUNCTION        0.94          1.029        0.161
  YS02006556           JUNCTION        0.78          0.973        0.377
  YS02006558           JUNCTION        0.77          1.059        0.341
  YS02006561           JUNCTION        0.45          0.183        0.967
  YS02163301           JUNCTION        0.97          0.996        0.034
  YS02163601           JUNCTION        1.03          1.080        0.000
  YS02164001           JUNCTION        0.88          0.955        0.145
  
  
  *********************
  Node Flooding Summary
  *********************
  
  Flooding refers to all water that overflows a node, whether it ponds or not.
  --------------------------------------------------------------------------
                                                             Total   Maximum
                                 Maximum   Time of Max       Flood    Ponded
                        Hours       Rate    Occurrence      Volume     Depth
  Node                 Flooded       LPS   days hr:min    10^6 ltr    Meters
  --------------------------------------------------------------------------
  WS02006234              0.01      5.87      0  02:19       0.000     0.000
  WS02006235              0.01      8.72      0  02:19       0.000     0.000
  WS02006238              0.01      8.03      0  02:51       0.000     0.000
  WS02006239              0.01      2.36      0  02:07       0.000     0.000
  WS02006240              0.01      3.25      0  02:07       0.000     0.000
  WS02006242              0.01      4.55      0  02:56       0.000     0.000
  WS02006243              0.01      1.66      0  02:56       0.000     0.000
  WS02006248              0.01     35.25      0  02:07       0.000     0.000
  WS02006249              0.60     35.19      0  02:34       0.024     0.000
  WS02006252              0.01    264.63      0  01:47       0.003     0.000
  WS02006256              0.89    293.19      0  00:00       0.373     0.000
  YS02001580              0.01     50.27      0  02:06       0.000     0.000
  YS02001586              0.61    763.08      0  02:26       0.668     0.000
  YS02001590              0.01      0.44      0  02:07       0.000     0.000
  YS02001593              0.01      0.90      0  02:07       0.000     0.000
  YS02001596              0.01      0.42      0  02:07       0.000     0.000
  YS02001600              0.01      1.42      0  02:06       0.000     0.000
  YS02001601              0.76   1786.38      0  02:25       1.920     0.000
  YS02001602              0.55     61.90      0  02:27       0.115     0.000
  YS02001605              0.01      0.21      0  02:13       0.000     0.000
  YS02001610              0.51    947.18      0  02:28       0.995     0.000
  YS02001613              0.01      0.45      0  02:19       0.000     0.000
  YS02001616              0.10      6.34      0  02:34       0.000     0.000
  YS02001619              0.11    264.64      0  02:26       0.058     0.000
  YS02001625              0.44   1504.75      0  02:29       1.467     0.000
  YS02001629              0.22    283.34      0  02:25       0.085     0.000
  YS02001633              0.01      0.18      0  02:24       0.000     0.000
  YS02001644              0.25   1877.46      0  02:25       0.766     0.000
  YS02001770              0.06    247.79      0  02:25       0.029     0.000
  YS02001779              0.22    849.55      0  02:26       0.362     0.000
  YS02001890              0.24    625.21      0  02:25       0.230     0.000
  YS02001907              0.43   2892.46      0  02:25       2.092     0.000
  YS02001915              0.02     34.30      0  02:25       0.001     0.000
  YS02001918              0.01     70.75      0  02:14       0.000     0.000
  YS02001926              0.01     12.77      0  02:14       0.000     0.000
  YS02001929              0.01    144.56      0  02:14       0.000     0.000
  YS02163601              0.01      0.24      0  02:19       0.000     0.000
  
  
  **********************
  Storage Volume Summary
  **********************
  
  ------------------------------------------------------------------------------------------------
                         Average    Avg   Evap  Exfil     Maximum    Max    Time of Max    Maximum
                          Volume   Pcnt   Pcnt   Pcnt      Volume   Pcnt     Occurrence    Outflow
  Storage Unit           1000 m³   Full   Loss   Loss     1000 m³   Full    days hr:min        LPS
  ------------------------------------------------------------------------------------------------
  CC-storage               0.794   12.4    0.0    0.0       3.018   47.1       0  02:53    1783.53
  JK-storage               0.001    0.3    0.0    0.0       0.150   51.6       0  00:00    2300.00
  
  
  ***********************
  Outfall Loading Summary
  ***********************
  
  -----------------------------------------------------------
                         Flow       Avg       Max       Total
                         Freq      Flow      Flow      Volume
  Outfall Node           Pcnt       LPS       LPS    10^6 ltr
  -----------------------------------------------------------
  CC-1                  52.73    683.00    683.00       5.717
  CC-2                  52.73    683.00    683.00       5.717
  JK-1                  19.53    917.81   1000.00       2.524
  JK-2                  19.53    917.81   1000.00       2.524
  WSC                   99.95    240.33    518.16       4.634
  -----------------------------------------------------------
  System                48.90   3441.95   3884.16      21.116
  
  
  ********************
  Link Flow Summary
  ********************
  
  -----------------------------------------------------------------------------
                                 Maximum  Time of Max   Maximum    Max/    Max/
                                  |Flow|   Occurrence   |Veloc|    Full    Full
  Link                 Type          LPS  days hr:min     m/sec    Flow   Depth
  -----------------------------------------------------------------------------
  1                    CONDUIT    518.16     0  02:33      2.77    0.18    0.29
  WS02003060WS02003069 CONDUIT    516.43     0  02:31      1.61    0.20    0.33
  WS02003066WSF200     CONDUIT    499.91     0  02:30      2.80    0.08    0.21
  WS02003067WS02003066 CONDUIT    499.93     0  02:30      1.16    0.16    0.41
  WS02003069WS02003072 CONDUIT    516.52     0  02:32      1.34    0.25    0.37
  WS02003072WS02003073 CONDUIT    516.44     0  02:32      1.40    1.12    0.36
  WS02004401WS02004402 CONDUIT    500.86     0  02:28      1.22    0.60    0.84
  WS02004402WS02004403 CONDUIT    500.89     0  02:28      1.24    0.72    0.86
  WS02004403WS02004404 CONDUIT    500.70     0  02:28      1.24    0.36    0.90
  WS02004404WS02004405 CONDUIT    500.64     0  02:28      1.45    4.90    0.94
  WS02004405WS02004406 CONDUIT    500.71     0  02:25      1.46    0.99    0.93
  WS02004406WS02004407 CONDUIT    500.49     0  02:28      1.00    0.22    0.61
  WS02004407WS02004409 CONDUIT    500.38     0  02:28      1.59    0.18    0.46
  WS02004409WS02004410 CONDUIT    500.29     0  02:29      1.06    0.65    0.65
  WS02004410WS02004411 CONDUIT    500.18     0  02:29      1.12    0.68    0.66
  WS02004411WS02004412 CONDUIT    500.10     0  02:29      1.22    0.71    0.67
  WS02004412WS02004413 CONDUIT    500.15     0  02:29      1.22    0.33    0.76
  WS02004413WS02003067 CONDUIT    499.86     0  02:30      1.07    0.21    0.58
  WS02006109WS02006110 CONDUIT    505.85     0  02:19      1.01    0.97    0.99
  WS02006110WS02006113 CONDUIT    504.84     0  02:19      1.21    0.46    0.77
  WS02006111WS02006112 CONDUIT    504.49     0  02:20      1.95    0.24    0.67
  WS02006112WS02006115 CONDUIT    508.46     0  02:27      0.82    0.30    0.86
  WS02006113WS02006111 CONDUIT    520.10     0  02:25      2.40    0.62    0.45
  WS02006115WS02006116 CONDUIT    502.66     0  02:27      1.29    0.65    0.73
  WS02006116WS02004401 CONDUIT    501.37     0  02:27      1.21    0.69    0.81
  WS02006228WS02006109 CONDUIT    504.41     0  02:19      1.06    2.20    1.00
  WS02006229WS02006228 CONDUIT    504.63     0  02:19      1.12    1.67    1.00
  WS02006230WS02006229 CONDUIT    503.80     0  02:19      1.31   11.21    1.00
  WS02006231WS02006230 CONDUIT    537.18     0  02:19      1.41    8.15    0.98
  WS02006232WS02006231 CONDUIT    526.72     0  02:19      1.37    1.10    1.00
  WS02006234WS02006232 CONDUIT    521.74     0  02:34      1.39    1.06    1.00
  WS02006235WS02006234 CONDUIT    516.50     0  02:19      1.34    5.45    1.00
  WS02006238WS02006235 CONDUIT    433.26     0  02:07      1.45    0.97    1.00
  WS02006239WS02006238 CONDUIT    416.72     0  02:56      1.11    1.33    1.00
  WS02006240WS02006239 CONDUIT    415.80     0  02:55      1.24    1.31    1.00
  WS02006242WS02006240 CONDUIT    414.79     0  02:55      1.16    1.65    1.00
  WS02006243WS02006242 CONDUIT    414.92     0  02:55      1.38    0.89    1.00
  WS02006245WS02006243 CONDUIT    415.11     0  02:55      1.44    1.23    1.00
  WS02006247WS02006245 CONDUIT    417.67     0  02:04      1.43    3.31    1.00
  WS02006248WS02006247 CONDUIT    431.65     0  02:01      1.42    0.94    1.00
  WS02006249WS02006248 CONDUIT    422.42     0  02:01      1.36    2.31    1.00
  WS02006251WS02006249 CONDUIT    464.45     0  01:57      2.06    1.34    1.00
  WS02006252WS02006251 CONDUIT    405.71     0  01:45     27.96    1.49    1.00
  WS02006256WS02006235 CONDUIT    288.91     0  00:00      4.23    3.06    1.00
  WSF200WS02003060     CONDUIT    500.09     0  02:30      2.02    0.11    0.27
  YS02001580YS02001583 CONDUIT     71.80     0  02:06      0.50    0.28    1.00
  YS02001583YS02001586 CONDUIT    110.35     0  02:06      0.46    0.17    1.00
  YS02001586YS02001590 CONDUIT    317.80     0  02:28      1.26    0.56    1.00
  YS02001590YS02001593 CONDUIT    317.85     0  02:34      1.12    2.00    1.00
  YS02001593YS02001596 CONDUIT    317.82     0  02:36      1.80    0.50    1.00
  YS02001596YS02001600 CONDUIT    317.84     0  02:25      1.29    0.62    1.00
  YS02001600YS02001601 CONDUIT    317.91     0  02:19      1.12    0.55    1.00
  YS02001601YS02001602 CONDUIT    509.37     0  02:52      1.80    1.84    1.00
  YS02001602YS02001605 CONDUIT    509.62     0  02:51      1.80   10.78    1.00
  YS02001605YS02001607 CONDUIT    509.56     0  02:52      1.80    2.79    1.00
  YS02001607YS02001610 CONDUIT    510.12     0  02:52      0.65    0.49    1.00
  YS02001610YS02001613 CONDUIT    611.06     0  02:28      0.78    0.70    1.00
  YS02001613YS02001616 CONDUIT    610.74     0  02:29      0.78    0.52    1.00
  YS02001616YS02001619 CONDUIT    610.91     0  02:28      0.78    1.06    1.00
  YS02001619YS02001622 CONDUIT   1053.62     0  02:27      1.34    1.55    1.00
  YS02001622YS02001625 CONDUIT   1053.50     0  02:28      1.34    0.56    1.00
  YS02001625YS02001629 CONDUIT    991.81     0  02:43      1.26    0.47    1.00
  YS02001629YS02163301 CONDUIT    992.21     0  02:43      1.26    1.22    1.00
  YS02001633YS02163601 CONDUIT   1347.41     0  02:12      1.72    1.41    1.00
  YS02001641YS02001644 CONDUIT   1347.51     0  02:12      1.72    4.36    1.00
  YS02001644YS02001647 CONDUIT   1722.25     0  02:13      2.20    1.01    1.00
  YS02001647YS02001649 CONDUIT   1737.74     0  02:12      2.26    0.92    1.00
  YS02001649YS02001757 CONDUIT   1992.86     0  02:13      2.54    1.21    1.00
  YS02001652YS02001649 CONDUIT   1246.45     0  02:25      1.59    0.62    1.00
  YS02001655YS02001652 CONDUIT   1246.31     0  02:25      1.59    0.61    1.00
  YS02001658YS02001655 CONDUIT   1245.72     0  02:25      1.79    0.53    1.00
  YS02001661YS02001658 CONDUIT   1246.40     0  02:25      2.24    0.49    1.00
  YS02001664YS02001661 CONDUIT   1245.43     0  02:25      2.22    0.39    0.91
  YS02001745YS02001748 CONDUIT    776.03     0  02:25      2.08    0.30    0.96
  YS02001748YS02001751 CONDUIT    776.42     0  02:25      1.60    0.39    1.00
  YS02001751YS02001754 CONDUIT    776.25     0  02:25      1.29    0.37    1.00
  YS02001754YS02001757 CONDUIT    776.47     0  02:25      0.99    0.31    1.00
  YS02001757CaochengTiaoxuchi CONDUIT   3576.32     0  02:25      6.93    1.55    1.00
  YS02001759YS02001757 CONDUIT   1508.63     0  02:25      1.92    1.07    1.00
  YS02001762YS02001759 CONDUIT    828.85     0  02:31      1.06    0.95    1.00
  YS02001765YS02001762 CONDUIT    828.60     0  02:31      1.06    0.78    1.00
  YS02001767YS02001765 CONDUIT    828.29     0  02:31      1.05    1.04    1.00
  YS02001770YS02001767 CONDUIT    827.53     0  02:31      1.05    3.28    1.00
  YS02001774YS02001770 CONDUIT    849.42     0  02:26      1.08    0.54    1.00
  YS02001779YS02001774 CONDUIT    849.66     0  02:26      1.08    0.43    1.00
  YS02001783YS02001784 CONDUIT   1170.33     0  02:24      2.33    1.61    1.00
  YS02001784YS02001785 CONDUIT   1171.89     0  02:24      2.33    2.73    1.00
  YS02001786YS02001788 CONDUIT   1172.40     0  02:24      2.49    2.26    0.89
  YS02001788YS02001790 CONDUIT   1180.65     0  02:22      2.73    0.87    0.84
  YS02001790YS02001791 CONDUIT   1300.30     0  02:24      3.44    1.41    0.71
  YS02001791YS02001793 CONDUIT   1258.23     0  02:25      6.39    0.54    0.43
  YS02001793JiankangQianchi CONDUIT   1307.75     0  02:25     24.78    0.10    0.50
  YS02001882YS02001884 CONDUIT     34.62     0  02:10      0.14    0.04    1.00
  YS02001884YS02001887 CONDUIT     38.23     0  02:09      0.10    0.05    1.00
  YS02001887YS02001890 CONDUIT   1141.93     0  02:25      1.45    1.95    1.00
  YS02001890YS02001895 CONDUIT    517.68     0  02:30      0.66    0.24    1.00
  YS02001895YS02001898 CONDUIT    517.80     0  02:22      0.66    0.90    1.00
  YS02001898YS02001901 CONDUIT    517.85     0  02:27      0.66    0.33    1.00
  YS02001901YS02001904 CONDUIT    517.69     0  02:30      0.66    0.80    1.00
  YS02001904YS02001907 CONDUIT    517.75     0  02:23      0.66    0.18    1.00
  YS02001907YS02006553 CONDUIT    805.96     0  02:40      0.90    0.95    1.00
  YS02001910YS02001907 CONDUIT   1991.96     0  02:26      2.54    1.12    1.00
  YS02001915YS02001910 CONDUIT   1992.10     0  02:26      2.54    0.99    1.00
  YS02001918YS02001915 CONDUIT    665.05     0  02:25      0.85    0.37    1.00
  YS02001920YS02001918 CONDUIT    664.57     0  02:25      0.85    0.64    1.00
  YS02001923YS02001920 CONDUIT    661.70     0  02:25      0.84    0.30    1.00
  YS02001926YS02001923 CONDUIT    660.98     0  02:25      0.94    0.94    1.00
  YS02001929YS02001926 CONDUIT    660.27     0  02:25      1.06    0.31    1.00
  YS02006553YS02006556 CONDUIT    805.32     0  02:40      1.03    0.69    1.00
  YS02006556YS02006558 CONDUIT    806.22     0  02:40      1.03    0.64    1.00
  YS02006558YS02006561 CONDUIT   1170.16     0  02:24      4.14    2.59    1.00
  YS02006561YS02001783 CONDUIT   1170.67     0  02:24      2.33    0.61    1.00
  YS02163301YS02001633 CONDUIT    992.54     0  02:43      1.26    0.93    1.00
  YS02163601YS02164001 CONDUIT   1347.58     0  02:12      1.72    1.19    1.00
  YS02164001YS02001641 CONDUIT   1347.02     0  02:12      1.72    1.84    1.00
  CC-R1                PUMP       683.00     0  00:00              1.00
  CC-R2                PUMP       683.00     0  00:00              1.00
  CC-S1                PUMP       200.00     0  00:00              1.00
  CC-S2                PUMP       200.00     0  00:00              1.00
  JK-R1                PUMP      1000.00     0  00:00              1.00
  JK-R2                PUMP      1000.00     0  00:00              1.00
  JK-S                 PUMP       300.00     0  00:00              1.00
  
  
  ***************************
  Flow Classification Summary
  ***************************
  
  -------------------------------------------------------------------------------------
                      Adjusted    ---------- Fraction of Time in Flow Class ---------- 
                       /Actual         Up    Down  Sub   Sup   Up    Down  Norm  Inlet 
  Conduit               Length    Dry  Dry   Dry   Crit  Crit  Crit  Crit  Ltd   Ctrl  
  -------------------------------------------------------------------------------------
  1                       1.00   0.00  0.00  0.00  0.00  1.00  0.00  0.00  0.32  0.00
  WS02003060WS02003069    1.00   0.00  0.00  0.00  0.97  0.03  0.00  0.00  0.72  0.00
  WS02003066WSF200        1.00   0.05  0.00  0.00  0.00  0.95  0.00  0.00  0.93  0.00
  WS02003067WS02003066    1.00   0.05  0.00  0.00  0.95  0.00  0.00  0.00  0.00  0.00
  WS02003069WS02003072    1.00   0.00  0.00  0.00  0.99  0.01  0.00  0.00  0.76  0.00
  WS02003072WS02003073    1.00   0.00  0.00  0.00  0.00  0.00  0.00  1.00  0.00  0.00
  WS02004401WS02004402    1.00   0.02  0.00  0.00  0.98  0.00  0.00  0.00  0.00  0.00
  WS02004402WS02004403    1.00   0.02  0.00  0.00  0.98  0.00  0.00  0.00  0.00  0.00
  WS02004403WS02004404    1.00   0.00  0.03  0.00  0.97  0.00  0.00  0.00  0.00  0.00
  WS02004404WS02004405    1.00   0.00  0.00  0.00  1.00  0.00  0.00  0.00  0.00  0.00
  WS02004405WS02004406    1.00   0.00  0.00  0.00  1.00  0.00  0.00  0.00  0.00  0.00
  WS02004406WS02004407    1.00   0.00  0.03  0.00  0.97  0.00  0.00  0.00  0.00  0.00
  WS02004407WS02004409    1.00   0.03  0.00  0.00  0.96  0.01  0.00  0.00  0.96  0.00
  WS02004409WS02004410    1.00   0.03  0.00  0.00  0.96  0.00  0.00  0.00  0.00  0.00
  WS02004410WS02004411    1.00   0.04  0.00  0.00  0.96  0.00  0.00  0.00  0.00  0.00
  WS02004411WS02004412    1.00   0.04  0.00  0.00  0.96  0.00  0.00  0.00  0.00  0.00
  WS02004412WS02004413    1.00   0.04  0.00  0.00  0.96  0.00  0.00  0.00  0.00  0.00
  WS02004413WS02003067    1.00   0.04  0.01  0.00  0.00  0.00  0.95  0.00  0.00  0.00
  WS02006109WS02006110    1.00   0.00  0.01  0.00  0.98  0.00  0.01  0.00  0.00  0.00
  WS02006110WS02006113    1.00   0.01  0.01  0.00  0.98  0.00  0.00  0.00  0.00  0.00
  WS02006111WS02006112    1.00   0.02  0.00  0.00  0.98  0.00  0.00  0.00  0.98  0.00
  WS02006112WS02006115    1.00   0.02  0.00  0.00  0.97  0.00  0.00  0.00  0.00  0.00
  WS02006113WS02006111    1.00   0.02  0.00  0.00  0.00  0.98  0.00  0.00  0.11  0.00
  WS02006115WS02006116    1.00   0.02  0.00  0.00  0.97  0.00  0.00  0.01  0.00  0.00
  WS02006116WS02004401    1.00   0.02  0.00  0.00  0.98  0.00  0.00  0.00  0.00  0.00
  WS02006228WS02006109    1.00   0.00  0.00  0.00  1.00  0.00  0.00  0.00  0.00  0.00
  WS02006229WS02006228    1.00   0.00  0.00  0.00  0.99  0.00  0.00  0.01  0.00  0.00
  WS02006230WS02006229    1.00   0.00  0.00  0.00  0.99  0.00  0.00  0.01  0.02  0.00
  WS02006231WS02006230    1.00   0.00  0.00  0.00  0.25  0.00  0.75  0.00  0.00  0.00
  WS02006232WS02006231    1.00   0.00  0.00  0.00  0.99  0.00  0.00  0.00  0.00  0.00
  WS02006234WS02006232    1.00   0.00  0.00  0.00  1.00  0.00  0.00  0.00  0.02  0.00
  WS02006235WS02006234    1.00   0.00  0.00  0.00  0.93  0.00  0.07  0.00  0.00  0.00
  WS02006238WS02006235    1.00   0.00  0.00  0.00  1.00  0.00  0.00  0.00  0.00  0.00
  WS02006239WS02006238    1.00   0.00  0.00  0.00  1.00  0.00  0.00  0.00  0.06  0.00
  WS02006240WS02006239    1.00   0.00  0.00  0.00  0.91  0.00  0.00  0.08  0.28  0.00
  WS02006242WS02006240    1.00   0.00  0.00  0.00  0.94  0.00  0.06  0.00  0.00  0.00
  WS02006243WS02006242    1.00   0.00  0.00  0.00  0.98  0.00  0.00  0.02  0.61  0.00
  WS02006245WS02006243    1.00   0.00  0.00  0.00  0.74  0.00  0.00  0.26  0.01  0.00
  WS02006247WS02006245    1.00   0.00  0.00  0.00  0.96  0.00  0.00  0.04  0.00  0.00
  WS02006248WS02006247    1.00   0.00  0.00  0.00  0.98  0.00  0.00  0.02  0.44  0.00
  WS02006249WS02006248    1.00   0.00  0.00  0.00  0.44  0.00  0.56  0.00  0.00  0.00
  WS02006251WS02006249    1.00   0.00  0.00  0.00  0.99  0.01  0.00  0.00  0.60  0.00
  WS02006252WS02006251    1.00   0.08  0.56  0.00  0.10  0.00  0.27  0.00  0.01  0.00
  WS02006256WS02006235    1.00   0.00  0.00  0.00  0.95  0.05  0.00  0.00  0.01  0.00
  WSF200WS02003060        1.00   0.00  0.05  0.00  0.35  0.60  0.00  0.00  0.67  0.00
  YS02001580YS02001583    1.00   0.26  0.53  0.00  0.21  0.00  0.00  0.00  0.62  0.00
  YS02001583YS02001586    1.00   0.39  0.34  0.00  0.26  0.00  0.00  0.00  0.62  0.00
  YS02001586YS02001590    1.00   0.13  0.00  0.00  0.47  0.04  0.00  0.36  0.39  0.00
  YS02001590YS02001593    1.00   0.13  0.01  0.00  0.13  0.00  0.73  0.00  0.00  0.00
  YS02001593YS02001596    1.00   0.13  0.00  0.00  0.15  0.01  0.00  0.70  0.02  0.00
  YS02001596YS02001600    1.00   0.14  0.00  0.00  0.22  0.01  0.00  0.63  0.05  0.00
  YS02001600YS02001601    1.00   0.13  0.01  0.00  0.86  0.00  0.00  0.00  0.58  0.00
  YS02001601YS02001602    1.00   0.13  0.01  0.00  0.87  0.00  0.00  0.00  0.00  0.00
  YS02001602YS02001605    1.00   0.14  0.00  0.00  0.86  0.00  0.00  0.00  0.00  0.00
  YS02001605YS02001607    1.00   0.14  0.00  0.00  0.86  0.00  0.00  0.00  0.00  0.00
  YS02001607YS02001610    1.00   0.13  0.01  0.00  0.86  0.00  0.00  0.00  0.01  0.00
  YS02001610YS02001613    1.00   0.13  0.00  0.00  0.87  0.00  0.00  0.00  0.00  0.00
  YS02001613YS02001616    1.00   0.13  0.00  0.00  0.87  0.00  0.00  0.00  0.00  0.00
  YS02001616YS02001619    1.00   0.13  0.00  0.00  0.87  0.00  0.00  0.00  0.00  0.00
  YS02001619YS02001622    1.00   0.13  0.00  0.00  0.87  0.00  0.00  0.00  0.26  0.00
  YS02001622YS02001625    1.00   0.13  0.00  0.00  0.87  0.00  0.00  0.00  0.04  0.00
  YS02001625YS02001629    1.00   0.13  0.04  0.00  0.18  0.00  0.65  0.00  0.00  0.00
  YS02001629YS02163301    1.00   0.15  0.01  0.00  0.84  0.00  0.00  0.00  0.00  0.00
  YS02001633YS02163601    1.00   0.00  0.01  0.00  0.99  0.00  0.00  0.00  0.15  0.00
  YS02001641YS02001644    1.00   0.00  0.01  0.00  0.99  0.00  0.00  0.00  0.00  0.00
  YS02001644YS02001647    1.00   0.00  0.17  0.00  0.83  0.00  0.00  0.00  0.00  0.00
  YS02001647YS02001649    1.00   0.00  0.17  0.00  0.51  0.32  0.00  0.00  0.54  0.00
  YS02001649YS02001757    1.00   0.00  0.00  0.00  0.85  0.15  0.00  0.00  0.72  0.00
  YS02001652YS02001649    1.00   0.00  0.00  0.00  0.97  0.03  0.00  0.00  0.72  0.00
  YS02001655YS02001652    1.00   0.00  0.00  0.00  0.20  0.02  0.00  0.78  0.10  0.00
  YS02001658YS02001655    1.00   0.00  0.14  0.00  0.61  0.25  0.00  0.00  0.72  0.00
  YS02001661YS02001658    1.00   0.14  0.00  0.00  0.45  0.41  0.00  0.00  0.71  0.00
  YS02001664YS02001661    1.00   0.13  0.00  0.00  0.73  0.14  0.00  0.00  0.85  0.00
  YS02001745YS02001748    1.00   0.00  0.00  0.00  0.05  0.01  0.00  0.94  0.02  0.00
  YS02001748YS02001751    1.00   0.00  0.00  0.00  0.77  0.23  0.00  0.00  0.78  0.00
  YS02001751YS02001754    1.00   0.00  0.00  0.00  0.14  0.01  0.00  0.85  0.05  0.00
  YS02001754YS02001757    1.00   0.00  0.00  0.00  1.00  0.00  0.00  0.00  0.83  0.00
  YS02001757CaochengTiaoxuchi    1.00   0.00  0.00  0.00  0.16  0.84  0.00  0.00  0.12  0.00
  YS02001759YS02001757    1.00   0.00  0.00  0.00  1.00  0.00  0.00  0.00  0.62  0.00
  YS02001762YS02001759    1.00   0.00  0.00  0.00  1.00  0.00  0.00  0.00  0.06  0.00
  YS02001765YS02001762    1.00   0.00  0.00  0.00  1.00  0.00  0.00  0.00  0.71  0.00
  YS02001767YS02001765    1.00   0.00  0.00  0.00  1.00  0.00  0.00  0.00  0.00  0.00
  YS02001770YS02001767    1.00   0.00  0.00  0.00  1.00  0.00  0.00  0.00  0.00  0.00
  YS02001774YS02001770    1.00   0.00  0.13  0.00  0.72  0.00  0.15  0.00  0.03  0.00
  YS02001779YS02001774    1.00   0.00  0.00  0.00  1.00  0.00  0.00  0.00  0.77  0.00
  YS02001783YS02001784    1.00   0.00  0.18  0.00  0.82  0.00  0.00  0.00  0.54  0.00
  YS02001784YS02001785    1.00   0.00  0.00  0.00  1.00  0.00  0.00  0.00  0.16  0.00
  YS02001786YS02001788    1.00   0.00  0.00  0.00  0.79  0.21  0.00  0.00  0.00  0.00
  YS02001788YS02001790    1.00   0.00  0.00  0.00  0.22  0.78  0.00  0.00  0.79  0.00
  YS02001790YS02001791    1.00   0.00  0.00  0.00  0.01  0.99  0.00  0.00  0.15  0.00
  YS02001791YS02001793    1.00   0.00  0.00  0.00  0.00  1.00  0.00  0.00  0.01  0.00
  YS02001793JiankangQianchi    1.00   0.00  0.00  0.00  0.00  1.00  0.00  0.00  0.13  0.00
  YS02001882YS02001884    1.00   0.15  0.01  0.00  0.84  0.00  0.00  0.00  0.00  0.00
  YS02001884YS02001887    1.00   0.06  0.05  0.00  0.89  0.00  0.00  0.00  0.00  0.00
  YS02001887YS02001890    1.00   0.00  0.00  0.00  0.97  0.00  0.03  0.00  0.00  0.00
  YS02001890YS02001895    1.00   0.00  0.16  0.00  0.84  0.00  0.00  0.00  0.00  0.00
  YS02001895YS02001898    1.00   0.16  0.00  0.00  0.82  0.00  0.02  0.00  0.00  0.00
  YS02001898YS02001901    1.00   0.16  0.00  0.00  0.84  0.00  0.00  0.00  0.01  0.00
  YS02001901YS02001904    1.00   0.16  0.00  0.00  0.84  0.00  0.00  0.00  0.00  0.00
  YS02001904YS02001907    1.00   0.00  0.16  0.00  0.84  0.00  0.00  0.00  0.00  0.00
  YS02001907YS02006553    1.00   0.00  0.02  0.00  0.98  0.00  0.00  0.00  0.00  0.00
  YS02001910YS02001907    1.00   0.00  0.00  0.00  0.97  0.00  0.00  0.03  0.12  0.00
  YS02001915YS02001910    1.00   0.00  0.00  0.00  0.97  0.03  0.00  0.00  0.15  0.00
  YS02001918YS02001915    1.00   0.00  0.01  0.00  0.98  0.02  0.00  0.00  0.72  0.00
  YS02001920YS02001918    1.00   0.00  0.01  0.00  0.99  0.00  0.00  0.00  0.00  0.00
  YS02001923YS02001920    1.00   0.00  0.00  0.00  1.00  0.00  0.00  0.00  0.91  0.00
  YS02001926YS02001923    1.00   0.00  0.07  0.00  0.07  0.00  0.85  0.00  0.00  0.00
  YS02001929YS02001926    1.00   0.00  0.13  0.00  0.87  0.00  0.00  0.00  0.81  0.00
  YS02006553YS02006556    1.00   0.01  0.00  0.00  0.99  0.00  0.00  0.00  0.03  0.00
  YS02006556YS02006558    1.00   0.00  0.00  0.00  1.00  0.00  0.00  0.00  0.00  0.00
  YS02006558YS02006561    1.00   0.18  0.00  0.00  0.07  0.76  0.00  0.00  0.18  0.00
  YS02006561YS02001783    1.00   0.18  0.00  0.00  0.11  0.72  0.00  0.00  0.67  0.00
  YS02163301YS02001633    1.00   0.00  0.15  0.00  0.85  0.00  0.00  0.00  0.00  0.00
  YS02163601YS02164001    1.00   0.00  0.08  0.00  0.92  0.00  0.00  0.00  0.00  0.00
  YS02164001YS02001641    1.00   0.01  0.08  0.00  0.92  0.00  0.00  0.00  0.05  0.00
  
  
  *************************
  Conduit Surcharge Summary
  *************************
  
  ----------------------------------------------------------------------------
                                                           Hours        Hours 
                         --------- Hours Full --------   Above Full   Capacity
  Conduit                Both Ends  Upstream  Dnstream   Normal Flow   Limited
  ----------------------------------------------------------------------------
  WS02003072WS02003073        0.01      0.01      0.01      0.82         0.01
  WS02004404WS02004405        0.01      0.01      0.01      2.70         0.01
  WS02006109WS02006110        0.01      0.01      1.83      0.01         0.01
  WS02006110WS02006113        0.01      0.01      1.81      0.01         0.01
  WS02006111WS02006112        0.01      0.01      1.94      0.01         0.01
  WS02006112WS02006115        0.01      0.01      0.52      0.01         0.01
  WS02006228WS02006109        1.73      1.84      1.73      2.28         1.73
  WS02006229WS02006228        1.72      1.76      1.72      2.04         1.71
  WS02006230WS02006229        1.92      1.98      1.92      3.42         1.92
  WS02006231WS02006230        0.01      0.01      0.62      2.80         0.01
  WS02006232WS02006231        0.55      0.55      1.84      0.57         0.01
  WS02006234WS02006232        1.69      1.69      1.84      0.05         0.38
  WS02006235WS02006234        1.31      1.31      1.74      2.68         0.24
  WS02006238WS02006235        1.77      1.77      1.87      0.01         0.01
  WS02006239WS02006238        1.80      1.84      1.80      1.96         1.38
  WS02006240WS02006239        1.74      1.76      1.74      1.96         1.40
  WS02006242WS02006240        1.75      1.75      1.91      2.07         0.01
  WS02006243WS02006242        1.78      1.78      1.87      0.01         0.06
  WS02006245WS02006243        1.77      1.78      1.77      1.98         1.57
  WS02006247WS02006245        1.77      1.81      1.77      2.37         1.76
  WS02006248WS02006247        1.77      1.77      1.79      0.01         0.04
  WS02006249WS02006248        1.76      1.76      1.78      2.23         0.01
  WS02006251WS02006249        1.78      1.80      1.78      2.07         1.69
  WS02006252WS02006251        2.31      2.31      2.32      2.33         0.01
  WS02006256WS02006235        1.86      2.72      5.33      0.83         0.15
  YS02001580YS02001583        0.73      0.73      0.77      0.01         0.01
  YS02001583YS02001586        0.74      0.74      0.84      0.01         0.01
  YS02001586YS02001590        0.85      0.85      0.93      0.01         0.01
  YS02001590YS02001593        0.92      0.92      0.95      0.96         0.01
  YS02001593YS02001596        0.94      0.94      1.05      0.01         0.01
  YS02001596YS02001600        1.11      1.11      1.20      0.01         0.01
  YS02001600YS02001601        1.27      1.27      1.57      0.01         0.01
  YS02001601YS02001602        1.45      1.45      1.61      1.23         0.01
  YS02001602YS02001605        1.39      1.39      1.45      2.48         0.01
  YS02001605YS02001607        1.34      1.39      1.34      1.53         1.34
  YS02001607YS02001610        0.86      0.86      0.89      0.01         0.01
  YS02001610YS02001613        0.84      0.84      0.89      0.01         0.01
  YS02001613YS02001616        0.80      0.80      0.84      0.01         0.01
  YS02001616YS02001619        0.78      0.78      0.80      0.09         0.04
  YS02001619YS02001622        0.77      0.78      0.77      0.97         0.76
  YS02001622YS02001625        0.77      0.77      0.99      0.01         0.01
  YS02001625YS02001629        0.67      0.67      0.99      0.01         0.01
  YS02001629YS02163301        0.96      0.96      0.97      0.43         0.41
  YS02001633YS02163601        0.99      0.99      1.03      0.55         0.55
  YS02001641YS02001644        0.79      0.86      0.79      1.65         0.78
  YS02001644YS02001647        0.50      0.50      0.79      0.03         0.01
  YS02001647YS02001649        0.50      0.50      0.56      0.01         0.01
  YS02001649YS02001757        0.54      0.56      0.54      0.48         0.34
  YS02001652YS02001649        0.43      0.43      0.56      0.01         0.01
  YS02001655YS02001652        0.34      0.34      0.42      0.01         0.01
  YS02001658YS02001655        0.26      0.26      0.34      0.01         0.01
  YS02001661YS02001658        0.10      0.10      0.26      0.01         0.01
  YS02001664YS02001661        0.01      0.01      0.14      0.01         0.01
  YS02001745YS02001748        0.01      0.01      0.17      0.01         0.01
  YS02001748YS02001751        0.22      0.22      0.28      0.01         0.01
  YS02001751YS02001754        0.28      0.28      0.34      0.01         0.01
  YS02001754YS02001757        0.36      0.36      0.54      0.01         0.01
  YS02001757CaochengTiaoxuchi        0.02      0.54      0.36      0.62         0.02
  YS02001759YS02001757        0.47      0.47      0.54      0.11         0.12
  YS02001762YS02001759        0.45      0.45      0.47      0.01         0.03
  YS02001765YS02001762        0.43      0.43      0.45      0.01         0.01
  YS02001767YS02001765        0.42      0.42      0.43      0.01         0.06
  YS02001770YS02001767        0.42      0.42      0.42      0.70         0.41
  YS02001774YS02001770        0.41      0.41      0.45      0.01         0.01
  YS02001779YS02001774        0.35      0.35      0.45      0.01         0.01
  YS02001783YS02001784        0.62      0.64      0.62      0.83         0.62
  YS02001784YS02001785        0.50      0.62      0.50      1.11         0.50
  YS02001786YS02001788        0.01      0.50      0.01      0.96         0.01
  YS02001790YS02001791        0.01      0.01      0.01      0.60         0.01
  YS02001882YS02001884        0.58      0.58      0.59      0.01         0.01
  YS02001884YS02001887        0.62      0.62      0.63      0.01         0.01
  YS02001887YS02001890        0.65      0.65      0.66      0.18         0.01
  YS02001890YS02001895        0.57      0.57      0.68      0.01         0.01
  YS02001895YS02001898        0.56      0.56      0.57      0.01         0.01
  YS02001898YS02001901        0.57      0.57      0.62      0.01         0.01
  YS02001901YS02001904        0.61      0.61      0.62      0.01         0.01
  YS02001904YS02001907        0.61      0.61      0.94      0.01         0.01
  YS02001907YS02006553        1.11      1.11      1.19      0.01         0.01
  YS02001910YS02001907        0.67      0.67      0.92      0.07         0.07
  YS02001915YS02001910        0.58      0.58      0.67      0.01         0.01
  YS02001918YS02001915        0.49      0.49      0.58      0.01         0.01
  YS02001920YS02001918        0.49      0.49      0.50      0.01         0.01
  YS02001923YS02001920        0.44      0.44      0.50      0.01         0.01
  YS02001926YS02001923        0.19      0.19      0.22      0.01         0.01
  YS02001929YS02001926        0.09      0.09      0.22      0.01         0.01
  YS02006553YS02006556        0.78      0.78      0.94      0.01         0.01
  YS02006556YS02006558        0.86      0.86      0.96      0.01         0.01
  YS02006558YS02006561        0.52      0.77      0.52      1.05         0.52
  YS02006561YS02001783        0.45      0.45      0.64      0.01         0.01
  YS02163301YS02001633        0.97      0.97      1.02      0.01         0.03
  YS02163601YS02164001        0.88      0.88      1.03      0.35         0.01
  YS02164001YS02001641        0.86      0.88      0.86      0.81         0.63
  
  
  ***************
  Pumping Summary
  ***************
  
  ---------------------------------------------------------------------------------------------------------
                                                  Min       Avg       Max     Total     Power    % Time Off
                        Percent   Number of      Flow      Flow      Flow    Volume     Usage    Pump Curve
  Pump                 Utilized   Start-Ups       LPS       LPS       LPS  10^6 ltr     Kw-hr    Low   High
  ---------------------------------------------------------------------------------------------------------
  CC-R1                   29.36          38      0.00    683.00    683.00     5.716     93.40    0.0   84.4
  CC-R2                   29.36          38      0.00    683.00    683.00     5.716     93.40    0.0   84.4
  CC-S1                   29.36          38      0.00    200.00    200.00     1.674     13.00    0.0   38.7
  CC-S2                   29.36          38      0.00    200.00    200.00     1.674     13.00    0.0   38.7
  JK-R1                   11.28        1297      0.00    917.81   1000.00     2.560      5.94    0.0    0.0
  JK-R2                   11.28        1297      0.00    917.81   1000.00     2.560      5.94    0.0    0.0
  JK-S                    11.28        1297      0.00    295.71    300.00     0.917     21.07    0.0    0.0
  

  Analysis begun on:  Wed Feb 26 11:08:20 2025
  Analysis ended on:  Wed Feb 26 11:08:22 2025
  Total elapsed time: 00:00:02