
  EPA STORM WATER MANAGEMENT MODEL - VERSION 5.2 (Build 5.2.4)
  PYSWMM TOOLKIT API - VERSION v1.0 (2023-11-27)
  ------------------------------------------------------------

  WARNING 04: minimum elevation drop used for Conduit WS02004404WS02004405
  WARNING 03: negative offset ignored for Link YS02001904YS02001907
  
  ****************
  Analysis Options
  ****************
  Flow Units ............... LPS
  Process Models:
    Rainfall/Runoff ........ YES
    RDII ................... NO
    Snowmelt ............... NO
    Groundwater ............ NO
    Flow Routing ........... YES
    Ponding Allowed ........ NO
    Water Quality .......... NO
  Infiltration Method ...... HORTON
  Flow Routing Method ...... DYNWAVE
  Surcharge Method ......... EXTRAN
  Starting Date ............ 08/28/2015 08:00:00
  Ending Date .............. 08/28/2015 16:00:00
  Antecedent Dry Days ...... 8.0
  Report Time Step ......... 00:01:00
  Wet Time Step ............ 00:01:00
  Dry Time Step ............ 00:01:00
  Routing Time Step ........ 30.00 sec
  Variable Time Step ....... YES
  Maximum Trials ........... 8
  Number of Threads ........ 4
  Head Tolerance ........... 0.001500 m
  
  
  **************************        Volume         Depth
  Runoff Quantity Continuity     hectare-m            mm
  **************************     ---------       -------
  Total Precipitation ......         1.708        51.486
  Evaporation Loss .........         0.000         0.000
  Infiltration Loss ........         0.096         2.894
  Surface Runoff ...........         1.579        47.610
  Final Storage ............         0.033         0.995
  Continuity Error (%) .....        -0.024
  
  
  **************************        Volume        Volume
  Flow Routing Continuity        hectare-m      10^6 ltr
  **************************     ---------     ---------
  Dry Weather Inflow .......         0.025         0.248
  Wet Weather Inflow .......         1.579        15.789
  Groundwater Inflow .......         0.000         0.000
  RDII Inflow ..............         0.000         0.000
  External Inflow ..........         0.083         0.825
  External Outflow .........         1.684        16.841
  Flooding Loss ............         0.338         3.384
  Evaporation Loss .........         0.000         0.000
  Exfiltration Loss ........         0.000         0.000
  Initial Stored Volume ....         0.243         2.431
  Final Stored Volume ......         0.039         0.391
  Continuity Error (%) .....        -6.854
  
  
  *************************
  Highest Continuity Errors
  *************************
  Node JK-storage (-31.95%)
  Node WS02006256 (-20.28%)
  Node YS02001583 (-6.59%)
  Node YS02001884 (5.24%)
  Node WS02006249 (1.16%)
  
  
  ***************************
  Time-Step Critical Elements
  ***************************
  Link YS02001793JiankangQianchi (38.97%)
  Link WS02006238WS02006235 (33.59%)
  Link WS02004404WS02004405 (7.47%)
  Link WS02003066WSF200 (4.39%)
  Link WS02006235WS02006234 (2.12%)
  
  
  ********************************
  Highest Flow Instability Indexes
  ********************************
  Link WS02006256WS02006235 (56)
  Link WS02006235WS02006234 (39)
  Link WS02006252WS02006251 (38)
  Link WS02006238WS02006235 (36)
  Link WS02006113WS02006111 (33)
  
  
  *********************************
  Most Frequent Nonconverging Nodes
  *********************************
  Node CC-1 (45.20%)
  Node CC-2 (45.20%)
  Node JK-1 (45.20%)
  Node JK-2 (45.20%)
  Node WSC (45.20%)
  
  
  *************************
  Routing Time Step Summary
  *************************
  Minimum Time Step           :     0.00 sec
  Average Time Step           :     2.83 sec
  Maximum Time Step           :     6.43 sec
  % of Time in Steady State   :     0.00
  Average Iterations per Step :     5.37
  % of Steps Not Converging   :    45.20
  Time Step Frequencies       :
     30.000 - 13.228 sec      :     0.00 %
     13.228 -  5.833 sec      :     7.56 %
      5.833 -  2.572 sec      :    40.25 %
      2.572 -  1.134 sec      :    34.85 %
      1.134 -  0.500 sec      :    17.34 %
  
  
  ***************************
  Subcatchment Runoff Summary
  ***************************
  
  ------------------------------------------------------------------------------------------------------------------------------
                            Total      Total      Total      Total     Imperv       Perv      Total       Total     Peak  Runoff
                           Precip      Runon       Evap      Infil     Runoff     Runoff     Runoff      Runoff   Runoff   Coeff
  Subcatchment                 mm         mm         mm         mm         mm         mm         mm    10^6 ltr      LPS
  ------------------------------------------------------------------------------------------------------------------------------
  sub60                     51.49       0.00       0.00       1.75      44.10       4.43      48.53        0.64   457.35   0.943
  sub61                     51.49       0.00       0.00       2.53      41.60       6.22      47.82        0.88   632.47   0.929
  sub62                     51.49       0.00       0.00       1.17      46.08       2.95      49.03        1.34   882.76   0.952
  sub63                     51.49       0.00       0.00       4.67      35.58      10.26      45.85        1.04   696.57   0.890
  sub64                     51.49       0.00       0.00       2.36      42.56       5.36      47.92        1.15   707.36   0.931
  sub65                     51.49       0.00       0.00       2.04      43.54       4.65      48.19        1.33   789.13   0.936
  sub66                     51.49       0.00       0.00       5.76      35.48       9.17      44.65        2.08  1001.09   0.867
  sub67                     51.49       0.00       0.00       1.13      46.12       2.99      49.12        0.91   692.25   0.954
  sub68                     51.49       0.00       0.00       2.10      43.09       5.11      48.20        1.33   907.60   0.936
  sub69                     51.49       0.00       0.00       1.85      43.65       5.87      49.52        1.83  1053.15   0.962
  sub70                     51.49       0.00       0.00       6.15      33.82      11.36      45.17        1.30   561.92   0.877
  sub71                     51.49       0.00       0.00       1.20      46.04       2.92      48.96        1.28   767.80   0.951
  sub72                     51.49       0.00       0.00       1.06      46.48       2.54      49.02        0.67   366.35   0.952
  
  
  ******************
  Node Depth Summary
  ******************
  
  ---------------------------------------------------------------------------------
                                 Average  Maximum  Maximum  Time of Max    Reported
                                   Depth    Depth      HGL   Occurrence   Max Depth
  Node                 Type       Meters   Meters   Meters  days hr:min      Meters
  ---------------------------------------------------------------------------------
  WS02003060           JUNCTION     0.20     0.37     5.30     0  02:19        0.37
  WS02003066           JUNCTION     0.17     0.29     5.84     0  02:18        0.29
  WS02003067           JUNCTION     0.45     0.69     6.01     0  02:18        0.68
  WS02003069           JUNCTION     0.22     0.41     5.00     0  02:19        0.41
  WS02003072           JUNCTION     0.28     0.48     4.85     0  02:20        0.48
  WS02003073           JUNCTION     0.16     0.29     4.35     0  02:21        0.29
  WS02004401           JUNCTION     0.54     0.82     6.82     0  02:15        0.82
  WS02004402           JUNCTION     0.57     0.85     6.81     0  02:15        0.85
  WS02004403           JUNCTION     0.59     0.86     6.79     0  02:16        0.86
  WS02004404           JUNCTION     0.67     0.94     6.79     0  02:16        0.94
  WS02004405           JUNCTION     0.66     0.93     6.78     0  02:15        0.93
  WS02004406           JUNCTION     0.67     0.94     6.77     0  02:16        0.93
  WS02004407           JUNCTION     0.15     0.28     6.60     0  02:16        0.28
  WS02004409           JUNCTION     0.34     0.64     6.41     0  02:17        0.64
  WS02004410           JUNCTION     0.36     0.66     6.38     0  02:17        0.66
  WS02004411           JUNCTION     0.38     0.67     6.35     0  02:17        0.67
  WS02004412           JUNCTION     0.40     0.68     6.32     0  02:18        0.68
  WS02004413           JUNCTION     0.56     0.84     6.31     0  02:18        0.84
  WS02006109           JUNCTION     0.61     0.93     7.55     0  02:00        0.93
  WS02006110           JUNCTION     0.61     0.90     7.48     0  02:02        0.90
  WS02006111           JUNCTION     0.16     0.28     6.98     0  02:03        0.28
  WS02006112           JUNCTION     0.69     1.02     6.90     0  02:13        1.01
  WS02006113           JUNCTION     0.24     0.44     7.33     0  02:02        0.44
  WS02006115           JUNCTION     0.43     0.72     6.86     0  02:14        0.72
  WS02006116           JUNCTION     0.51     0.80     6.84     0  02:15        0.80
  WS02006228           JUNCTION     0.60     0.97     7.62     0  02:00        0.96
  WS02006229           JUNCTION     0.57     0.96     7.66     0  02:02        0.96
  WS02006230           JUNCTION     0.57     1.03     7.78     0  02:14        1.02
  WS02006231           JUNCTION     0.38     0.93     8.05     0  02:14        0.77
  WS02006232           JUNCTION     0.51     1.35     8.39     0  02:14        1.35
  WS02006234           JUNCTION     0.43     1.78     8.93     0  02:14        1.78
  WS02006235           JUNCTION     0.47     2.00     9.16     0  02:02        2.00
  WS02006238           JUNCTION     0.50     2.15     9.29     0  02:02        2.15
  WS02006239           JUNCTION     0.46     1.55     8.76     0  02:14        1.55
  WS02006240           JUNCTION     0.43     1.41     8.70     0  02:14        1.37
  WS02006242           JUNCTION     0.49     1.55     8.82     0  02:13        1.55
  WS02006243           JUNCTION     0.42     1.48     8.90     0  02:13        1.48
  WS02006245           JUNCTION     0.43     1.56     9.04     0  03:01        1.56
  WS02006247           JUNCTION     0.45     1.47     8.97     0  03:01        1.47
  WS02006248           JUNCTION     0.42     1.10     8.69     0  02:01        1.10
  WS02006249           JUNCTION     0.45     1.09     8.69     0  01:59        1.09
  WS02006251           JUNCTION     0.45     1.31     8.98     0  01:59        1.13
  WS02006252           JUNCTION     0.29     1.50     9.74     0  00:00        1.27
  WS02006256           JUNCTION     0.90     2.35     9.28     0  00:00        2.35
  WSF200               JUNCTION     0.14     0.28     5.51     0  02:18        0.28
  YS02001580           JUNCTION     0.14     1.05     9.59     0  01:57        1.05
  YS02001583           JUNCTION     0.17     1.14     9.64     0  01:57        0.98
  YS02001586           JUNCTION     0.27     1.13     9.30     0  01:57        1.13
  YS02001590           JUNCTION     0.38     1.40     9.26     0  01:57        1.38
  YS02001593           JUNCTION     0.31     1.36     9.22     0  01:57        1.28
  YS02001596           JUNCTION     0.42     1.80     9.22     0  02:02        1.80
  YS02001600           JUNCTION     0.51     1.87     9.00     0  01:55        1.86
  YS02001601           JUNCTION     0.69     2.06     8.90     0  01:55        2.06
  YS02001602           JUNCTION     0.60     1.87     8.77     0  01:56        1.87
  YS02001605           JUNCTION     0.55     1.78     8.68     0  01:56        1.78
  YS02001607           JUNCTION     0.51     1.68     8.53     0  02:02        1.68
  YS02001610           JUNCTION     0.55     1.68     8.48     0  01:56        1.68
  YS02001613           JUNCTION     0.51     1.70     8.54     0  01:56        1.65
  YS02001616           JUNCTION     0.45     1.61     8.52     0  01:56        1.61
  YS02001619           JUNCTION     0.42     1.61     8.54     0  01:56        1.61
  YS02001622           JUNCTION     0.41     1.62     8.52     0  01:56        1.62
  YS02001625           JUNCTION     0.65     1.78     8.38     0  01:57        1.78
  YS02001629           JUNCTION     0.54     1.85     8.40     0  01:56        1.85
  YS02001633           JUNCTION     0.61     2.08     8.53     0  02:02        2.08
  YS02001641           JUNCTION     0.57     2.10     8.54     0  02:02        2.10
  YS02001644           JUNCTION     0.56     1.92     8.35     0  02:00        1.92
  YS02001647           JUNCTION     0.33     1.82     8.43     0  02:02        1.80
  YS02001649           JUNCTION     0.37     2.05     8.44     0  02:00        2.05
  YS02001652           JUNCTION     0.26     2.16     8.76     0  02:00        1.83
  YS02001655           JUNCTION     0.18     2.19     9.04     0  02:00        1.57
  YS02001658           JUNCTION     0.13     2.30     9.44     0  02:00        1.44
  YS02001661           JUNCTION     0.16     2.02     9.42     0  02:00        1.06
  YS02001664           JUNCTION     0.07     0.91     8.84     0  02:01        0.52
  YS02001745           JUNCTION     0.08     2.20     9.72     0  02:00        0.97
  YS02001748           JUNCTION     0.12     2.27     9.35     0  02:00        1.37
  YS02001751           JUNCTION     0.14     2.20     9.08     0  02:00        1.55
  YS02001754           JUNCTION     0.20     2.20     8.81     0  02:00        2.20
  YS02001757           JUNCTION     0.37     2.21     8.47     0  02:00        2.11
  YS02001759           JUNCTION     0.31     2.19     8.55     0  02:00        2.13
  YS02001762           JUNCTION     0.30     2.15     8.55     0  02:00        2.15
  YS02001765           JUNCTION     0.28     2.10     8.55     0  02:02        2.10
  YS02001767           JUNCTION     0.28     2.03     8.52     0  02:02        2.03
  YS02001770           JUNCTION     0.29     1.95     8.44     0  01:59        1.95
  YS02001774           JUNCTION     0.35     2.05     8.47     0  02:02        2.05
  YS02001779           JUNCTION     0.19     1.68     8.37     0  01:59        1.68
  YS02001783           JUNCTION     0.32     2.40     8.54     0  02:02        2.40
  YS02001784           JUNCTION     0.32     1.84     7.91     0  02:02        1.12
  YS02001786           JUNCTION     0.27     1.02     7.05     0  01:59        0.87
  YS02001788           JUNCTION     0.19     0.62     6.60     0  02:00        0.62
  YS02001790           JUNCTION     0.23     0.73     6.37     0  02:00        0.72
  YS02001791           JUNCTION     0.14     0.44     5.91     0  02:01        0.43
  YS02001793           JUNCTION     0.09     0.26     5.09     0  02:01        0.25
  YS02001882           JUNCTION     0.39     1.83     8.55     0  01:58        1.64
  YS02001884           JUNCTION     0.47     1.92     8.53     0  01:58        1.74
  YS02001887           JUNCTION     0.55     1.92     8.46     0  01:58        1.82
  YS02001890           JUNCTION     0.58     1.81     8.32     0  01:58        1.81
  YS02001895           JUNCTION     0.36     1.72     8.46     0  01:58        1.56
  YS02001898           JUNCTION     0.37     1.77     8.51     0  02:02        1.56
  YS02001901           JUNCTION     0.47     1.87     8.48     0  02:02        1.67
  YS02001904           JUNCTION     0.45     1.78     8.41     0  02:02        1.63
  YS02001907           JUNCTION     0.75     1.96     8.25     0  01:59        1.96
  YS02001910           JUNCTION     0.57     2.05     8.56     0  02:02        1.96
  YS02001915           JUNCTION     0.40     2.00     8.72     0  02:02        2.00
  YS02001918           JUNCTION     0.23     1.81     8.88     0  01:59        1.81
  YS02001920           JUNCTION     0.31     2.13     9.14     0  01:59        2.04
  YS02001923           JUNCTION     0.18     2.03     9.29     0  01:59        1.93
  YS02001926           JUNCTION     0.20     1.90     9.35     0  01:59        1.90
  YS02001929           JUNCTION     0.12     1.78     9.47     0  01:59        1.66
  YS02006553           JUNCTION     0.76     2.04     8.33     0  01:59        1.97
  YS02006556           JUNCTION     0.73     2.39     8.70     0  02:02        2.39
  YS02006558           JUNCTION     0.77     2.30     8.57     0  02:02        2.30
  YS02006561           JUNCTION     0.20     1.42     8.08     0  02:02        0.89
  YS02163301           JUNCTION     0.56     1.94     8.46     0  02:02        1.92
  YS02163601           JUNCTION     0.63     2.07     8.47     0  02:02        2.03
  YS02164001           JUNCTION     0.56     2.00     8.45     0  02:02        1.94
  CC-1                 OUTFALL      0.00     0.00     0.00     0  00:00        0.00
  CC-2                 OUTFALL      0.00     0.00     0.00     0  00:00        0.00
  JK-1                 OUTFALL      0.00     0.00     0.00     0  00:00        0.00
  JK-2                 OUTFALL      0.00     0.00     0.00     0  00:00        0.00
  WSC                  OUTFALL      0.16     0.29     0.96     0  02:21        0.29
  CC-storage           STORAGE      0.17     0.80     6.30     0  00:00        0.76
  JK-storage           STORAGE      0.02     2.99     3.79     0  00:00        0.68
  
  
  *******************
  Node Inflow Summary
  *******************
  
  -------------------------------------------------------------------------------------------------
                                  Maximum  Maximum                  Lateral       Total        Flow
                                  Lateral    Total  Time of Max      Inflow      Inflow     Balance
                                   Inflow   Inflow   Occurrence      Volume      Volume       Error
  Node                 Type           LPS      LPS  days hr:min    10^6 ltr    10^6 ltr     Percent
  -------------------------------------------------------------------------------------------------
  WS02003060           JUNCTION     16.53   514.64     0  02:19       0.471        3.82       0.061
  WS02003066           JUNCTION      0.00   498.05     0  02:18           0        3.36       0.045
  WS02003067           JUNCTION      0.00   498.01     0  02:18           0        3.36       0.126
  WS02003069           JUNCTION      0.32   514.88     0  02:19     0.00912        3.83       0.112
  WS02003072           JUNCTION      0.00   514.74     0  02:20           0        3.83       0.199
  WS02003073           JUNCTION      1.82   516.47     0  02:20      0.0519        3.87       0.154
  WS02004401           JUNCTION      0.00   499.55     0  02:14           0        3.47       0.308
  WS02004402           JUNCTION      0.00   499.59     0  02:14           0        3.45       0.311
  WS02004403           JUNCTION      0.00   499.38     0  02:15           0        3.44       0.304
  WS02004404           JUNCTION      0.16   499.20     0  02:14     0.00462        3.44       0.252
  WS02004405           JUNCTION      0.04   499.37     0  02:16     0.00109        3.43       0.370
  WS02004406           JUNCTION      0.00   499.63     0  02:16           0        3.42       0.629
  WS02004407           JUNCTION      0.00   499.12     0  02:16           0         3.4       0.037
  WS02004409           JUNCTION      0.00   498.94     0  02:16           0         3.4       0.086
  WS02004410           JUNCTION      0.00   498.72     0  02:17           0        3.39       0.141
  WS02004411           JUNCTION      0.00   498.44     0  02:17           0        3.39       0.174
  WS02004412           JUNCTION      0.00   498.26     0  02:17           0        3.38       0.230
  WS02004413           JUNCTION      0.00   498.22     0  02:18           0        3.37       0.424
  WS02006109           JUNCTION      1.23   503.61     0  02:00      0.0351        3.52       0.317
  WS02006110           JUNCTION      0.00   503.78     0  02:00           0        3.51       0.209
  WS02006111           JUNCTION      0.00   520.11     0  02:02           0         3.5       0.038
  WS02006112           JUNCTION      0.00   503.76     0  02:03           0         3.5       0.597
  WS02006113           JUNCTION      0.00   504.07     0  02:01           0         3.5       0.051
  WS02006115           JUNCTION      0.00   504.82     0  02:08           0        3.48       0.215
  WS02006116           JUNCTION      0.00   500.54     0  02:14           0        3.47       0.095
  WS02006228           JUNCTION      0.00   502.87     0  02:00           0        3.49       0.144
  WS02006229           JUNCTION      0.00   502.50     0  02:00           0        3.49       0.149
  WS02006230           JUNCTION     10.28   528.63     0  02:14       0.293         3.5       0.182
  WS02006231           JUNCTION      0.00   520.91     0  02:02           0        3.21       0.076
  WS02006232           JUNCTION      0.00   513.72     0  02:02           0        3.22       0.222
  WS02006234           JUNCTION      0.00   508.29     0  01:59           0         3.2      -0.401
  WS02006235           JUNCTION      0.00   516.00     0  02:00           0         3.4       0.399
  WS02006238           JUNCTION      0.00   416.02     0  02:34           0        2.79       0.209
  WS02006239           JUNCTION      0.00   415.75     0  02:29           0        2.63      -0.118
  WS02006240           JUNCTION      0.00   412.70     0  02:29           0        2.59      -0.063
  WS02006242           JUNCTION      0.00   412.55     0  02:29           0        2.59      -0.022
  WS02006243           JUNCTION      0.00   412.36     0  02:29           0        2.58      -0.227
  WS02006245           JUNCTION      0.00   415.10     0  01:55           0         2.6       0.654
  WS02006247           JUNCTION      0.00   417.67     0  01:54           0         2.6      -0.096
  WS02006248           JUNCTION      0.00   413.35     0  02:27           0        2.59      -0.379
  WS02006249           JUNCTION      0.00   459.02     0  00:00           0        2.63       1.173
  WS02006251           JUNCTION      0.08   415.86     0  03:09     0.00219        2.64       0.012
  WS02006252           JUNCTION      0.00   400.00     0  00:00           0        2.62      -0.737
  WS02006256           JUNCTION      0.00   307.60     0  02:35           0       0.796     -16.859
  WSF200               JUNCTION      0.00   498.03     0  02:18           0        3.35       0.017
  YS02001580           JUNCTION      0.00   128.24     0  01:56           0      0.0044       2.088
  YS02001583           JUNCTION      0.00   213.17     0  01:57           0      0.0152      -6.179
  YS02001586           JUNCTION    561.92   561.92     0  02:04         1.3        1.32       0.119
  YS02001590           JUNCTION      0.00   321.91     0  02:02           0        1.13      -0.032
  YS02001593           JUNCTION      0.00   318.14     0  02:02           0        1.13       0.021
  YS02001596           JUNCTION      0.00   317.79     0  02:11           0        1.13       0.009
  YS02001600           JUNCTION      0.00   317.90     0  02:13           0        1.13       0.019
  YS02001601           JUNCTION   1053.15  1370.59     0  02:03        1.83        2.96       0.031
  YS02001602           JUNCTION      0.00   539.77     0  01:56           0        2.04       0.027
  YS02001605           JUNCTION      0.00   539.24     0  01:56           0        1.97       0.032
  YS02001607           JUNCTION      0.00   537.99     0  01:56           0        1.97       0.101
  YS02001610           JUNCTION      0.00   541.20     0  01:56           0        2.02       0.123
  YS02001613           JUNCTION      0.00   547.72     0  01:56           0        1.73       0.100
  YS02001616           JUNCTION      0.00   556.92     0  01:56           0        1.73       0.032
  YS02001619           JUNCTION   1001.09  1001.09     0  02:04        2.08        3.76      -0.000
  YS02001622           JUNCTION      0.00   951.88     0  02:18           0         3.7      -0.003
  YS02001625           JUNCTION      0.00  1103.52     0  02:04           0        3.76       0.239
  YS02001629           JUNCTION      0.00   952.11     0  02:18           0        3.26       0.026
  YS02001633           JUNCTION    789.33  1418.57     0  01:58        1.33         4.5       0.080
  YS02001641           JUNCTION      0.00  1415.80     0  01:58           0        4.43       0.065
  YS02001644           JUNCTION    707.40  1858.54     0  01:58        1.15        5.58       0.062
  YS02001647           JUNCTION      0.00  1858.73     0  01:58           0        5.44       0.007
  YS02001649           JUNCTION      0.00  2149.10     0  01:58           0        6.48       0.006
  YS02001652           JUNCTION      0.00   917.46     0  02:02           0        1.04      -0.076
  YS02001655           JUNCTION      0.15   952.90     0  02:02     0.00439        1.05       0.103
  YS02001658           JUNCTION      0.00   963.82     0  02:02           0        1.04      -0.054
  YS02001661           JUNCTION      0.00   912.06     0  02:01           0        1.04       0.013
  YS02001664           JUNCTION    696.57   696.57     0  02:02        1.04        1.04      -0.016
  YS02001745           JUNCTION    457.35   687.30     0  02:00       0.638        0.64       0.146
  YS02001748           JUNCTION      0.04   605.49     0  02:00     0.00128       0.643      -0.344
  YS02001751           JUNCTION      0.01   581.77     0  02:01    0.000313       0.651       0.104
  YS02001754           JUNCTION      0.26   582.42     0  02:01     0.00741       0.666      -0.087
  YS02001757           JUNCTION      0.00  3262.58     0  02:05           0        9.33       0.017
  YS02001759           JUNCTION    632.51  1414.98     0  02:00       0.878        2.19      -0.004
  YS02001762           JUNCTION      0.00   817.34     0  02:00           0        1.31       0.013
  YS02001765           JUNCTION      0.00   817.13     0  02:00           0        1.31       0.013
  YS02001767           JUNCTION      0.54   817.77     0  02:00      0.0152        1.31       0.007
  YS02001770           JUNCTION    882.92   882.92     0  02:02        1.35        1.39      -0.022
  YS02001774           JUNCTION      0.00   476.48     0  01:59           0       0.105       1.031
  YS02001779           JUNCTION      0.01   483.82     0  01:59    0.000142      0.0642      -0.999
  YS02001783           JUNCTION      0.00  1160.99     0  02:01           0        3.46       0.008
  YS02001784           JUNCTION      1.06  1162.08     0  02:01      0.0302        3.49       0.019
  YS02001786           JUNCTION      0.06  1162.30     0  02:01      0.0016        3.49       0.015
  YS02001788           JUNCTION      0.07  1162.08     0  02:01     0.00202        3.49       0.008
  YS02001790           JUNCTION      0.15  1173.92     0  01:59     0.00442        3.49       0.004
  YS02001791           JUNCTION      0.00  1294.70     0  02:01           0        3.49       0.002
  YS02001793           JUNCTION      0.00  1242.82     0  02:02           0        3.49       0.013
  YS02001882           JUNCTION      0.00    51.43     0  01:57           0      0.0124       5.782
  YS02001884           JUNCTION      0.00    88.41     0  01:57           0      0.0477       5.529
  YS02001887           JUNCTION    692.70   694.11     0  02:01       0.926       0.959       0.471
  YS02001890           JUNCTION      0.00   696.27     0  02:02           0       0.918       0.563
  YS02001895           JUNCTION      0.00   577.76     0  02:02           0       0.872       0.190
  YS02001898           JUNCTION      0.00   573.28     0  02:02           0       0.871       0.046
  YS02001901           JUNCTION      0.00   517.12     0  02:02           0       0.873       0.378
  YS02001904           JUNCTION      0.00   520.87     0  02:02           0       0.877       0.346
  YS02001907           JUNCTION      0.00  1677.98     0  02:03           0         2.9       0.627
  YS02001910           JUNCTION      0.00  1161.82     0  02:03           0        2.03       0.359
  YS02001915           JUNCTION    767.82  1161.69     0  02:03        1.28        2.08       0.083
  YS02001918           JUNCTION      0.00   496.54     0  01:59           0       0.834       0.021
  YS02001920           JUNCTION      2.87   495.66     0  01:59      0.0818       0.814       0.109
  YS02001923           JUNCTION      0.04   532.05     0  01:58     0.00107       0.715      -0.055
  YS02001926           JUNCTION      0.05   854.42     0  01:59     0.00149       0.695      -0.136
  YS02001929           JUNCTION    366.35   701.63     0  01:59       0.674       0.679      -0.111
  YS02006553           JUNCTION      0.00   794.83     0  02:15           0        2.15       0.555
  YS02006556           JUNCTION      0.00   794.96     0  02:16           0        2.16       0.378
  YS02006558           JUNCTION    908.48  1169.81     0  01:59        1.35        3.49       0.099
  YS02006561           JUNCTION      0.00  1170.44     0  01:59           0        3.46       0.003
  YS02163301           JUNCTION      0.00   954.03     0  02:19           0        3.24       0.053
  YS02163601           JUNCTION      0.11  1417.97     0  01:58     0.00313        4.43       0.115
  YS02164001           JUNCTION      0.00  1417.19     0  01:58           0        4.43       0.058
  CC-1                 OUTFALL       0.00   683.00     0  00:00           0        4.47       0.000
  CC-2                 OUTFALL       0.00   683.00     0  00:00           0        4.47       0.000
  JK-1                 OUTFALL       0.00  1000.00     0  00:00           0        2.02       0.000
  JK-2                 OUTFALL       0.00  1000.00     0  00:00           0        2.02       0.000
  WSC                  OUTFALL       0.00   516.35     0  02:21           0        3.87       0.000
  CC-storage           STORAGE       0.00  3262.01     0  02:05           0        11.5      -0.377
  JK-storage           STORAGE       0.00  1290.10     0  02:02           0        3.64     -24.216
  
  
  **********************
  Node Surcharge Summary
  **********************
  
  Surcharging occurs when water rises above the top of the highest conduit.
  ---------------------------------------------------------------------
                                               Max. Height   Min. Depth
                                   Hours       Above Crown    Below Rim
  Node                 Type      Surcharged         Meters       Meters
  ---------------------------------------------------------------------
  WS02006109           JUNCTION        1.28          0.114        1.706
  WS02006112           JUNCTION        0.24          0.019        1.661
  WS02006228           JUNCTION        1.27          0.141        2.059
  WS02006229           JUNCTION        1.29          0.164        2.286
  WS02006231           JUNCTION        0.36          0.215        1.315
  WS02006232           JUNCTION        1.37          0.648        0.832
  WS02006234           JUNCTION        1.04          1.058        0.182
  WS02006235           JUNCTION        1.28          1.290        0.000
  WS02006238           JUNCTION        1.33          1.430        0.000
  WS02006239           JUNCTION        1.29          0.814        0.476
  WS02006240           JUNCTION        1.30          0.701        0.689
  WS02006242           JUNCTION        1.40          0.820        0.000
  WS02006243           JUNCTION        1.31          0.770        0.000
  WS02006245           JUNCTION        1.30          0.850        0.000
  WS02006247           JUNCTION        1.32          0.760        0.000
  WS02006248           JUNCTION        1.29          0.380        0.000
  WS02006249           JUNCTION        1.31          0.390        0.000
  WS02006251           JUNCTION        0.50          0.281        0.899
  WS02006252           JUNCTION        1.81          1.100        0.000
  WS02006256           JUNCTION        6.45          2.050        0.000
  YS02001580           JUNCTION        0.47          0.450        0.000
  YS02001583           JUNCTION        0.48          0.500        0.000
  YS02001586           JUNCTION        0.57          0.510        0.000
  YS02001590           JUNCTION        0.64          0.750        0.000
  YS02001593           JUNCTION        0.64          0.740        0.100
  YS02001596           JUNCTION        0.74          1.070        0.000
  YS02001600           JUNCTION        0.88          1.190        0.000
  YS02001601           JUNCTION        1.28          1.440        0.000
  YS02001602           JUNCTION        1.14          1.270        0.000
  YS02001605           JUNCTION        1.08          1.180        0.000
  YS02001607           JUNCTION        0.57          0.680        0.000
  YS02001610           JUNCTION        0.60          0.680        0.000
  YS02001613           JUNCTION        0.57          0.700        0.000
  YS02001616           JUNCTION        0.52          0.610        0.000
  YS02001619           JUNCTION        0.51          0.610        0.000
  YS02001622           JUNCTION        0.50          0.620        0.000
  YS02001625           JUNCTION        0.69          0.780        0.000
  YS02001629           JUNCTION        0.41          0.470        0.000
  YS02001633           JUNCTION        0.69          1.060        0.000
  YS02001641           JUNCTION        0.58          1.100        0.000
  YS02001644           JUNCTION        0.52          0.920        0.000
  YS02001647           JUNCTION        0.31          0.818        0.082
  YS02001649           JUNCTION        0.33          1.050        0.000
  YS02001652           JUNCTION        0.23          1.130        0.000
  YS02001655           JUNCTION        0.17          1.187        0.013
  YS02001658           JUNCTION        0.11          1.300        0.000
  YS02001661           JUNCTION        0.01          0.945        0.445
  YS02001745           JUNCTION        0.01          1.204        0.146
  YS02001748           JUNCTION        0.05          1.190        0.000
  YS02001751           JUNCTION        0.13          1.200        0.000
  YS02001754           JUNCTION        0.17          1.150        0.000
  YS02001757           JUNCTION        0.31          1.210        0.000
  YS02001759           JUNCTION        0.27          1.190        0.020
  YS02001762           JUNCTION        0.26          1.150        0.000
  YS02001765           JUNCTION        0.25          1.100        0.000
  YS02001767           JUNCTION        0.23          1.030        0.000
  YS02001770           JUNCTION        0.23          0.920        0.000
  YS02001774           JUNCTION        0.26          1.050        0.000
  YS02001779           JUNCTION        0.19          0.680        0.000
  YS02001783           JUNCTION        0.44          1.600        0.000
  YS02001784           JUNCTION        0.42          1.040        0.450
  YS02001786           JUNCTION        0.33          0.224        1.206
  YS02001882           JUNCTION        0.39          0.830        0.000
  YS02001884           JUNCTION        0.40          0.856        0.014
  YS02001887           JUNCTION        0.43          0.868        0.082
  YS02001890           JUNCTION        0.44          0.760        0.000
  YS02001895           JUNCTION        0.38          0.715        0.035
  YS02001898           JUNCTION        0.37          0.740        0.000
  YS02001901           JUNCTION        0.42          0.870        0.000
  YS02001904           JUNCTION        0.41          0.780        0.070
  YS02001907           JUNCTION        0.63          0.950        0.000
  YS02001910           JUNCTION        0.47          1.051        0.049
  YS02001915           JUNCTION        0.39          1.000        0.000
  YS02001918           JUNCTION        0.31          0.810        0.000
  YS02001920           JUNCTION        0.32          1.129        0.011
  YS02001923           JUNCTION        0.02          0.820        0.000
  YS02001926           JUNCTION        0.03          0.900        0.000
  YS02001929           JUNCTION        0.01          0.780        0.000
  YS02006553           JUNCTION        0.64          1.044        0.146
  YS02006556           JUNCTION        0.54          1.350        0.000
  YS02006558           JUNCTION        0.53          1.204        0.196
  YS02006561           JUNCTION        0.28          0.620        0.530
  YS02163301           JUNCTION        0.67          0.942        0.088
  YS02163601           JUNCTION        0.72          1.069        0.011
  YS02164001           JUNCTION        0.60          0.996        0.104
  
  
  *********************
  Node Flooding Summary
  *********************
  
  Flooding refers to all water that overflows a node, whether it ponds or not.
  --------------------------------------------------------------------------
                                                             Total   Maximum
                                 Maximum   Time of Max       Flood    Ponded
                        Hours       Rate    Occurrence      Volume     Depth
  Node                 Flooded       LPS   days hr:min    10^6 ltr    Meters
  --------------------------------------------------------------------------
  WS02006235              0.01      3.74      0  02:02       0.000     0.000
  WS02006238              0.01      1.02      0  02:02       0.000     0.000
  WS02006242              0.01      1.13      0  02:13       0.000     0.000
  WS02006243              0.01      1.64      0  02:13       0.000     0.000
  WS02006245              0.01      0.65      0  03:01       0.000     0.000
  WS02006247              0.01      0.84      0  03:01       0.000     0.000
  WS02006248              0.01     11.87      0  02:02       0.000     0.000
  WS02006249              0.38     41.26      0  01:59       0.014     0.000
  WS02006252              0.01    251.09      0  03:08       0.002     0.000
  WS02006256              0.78    296.97      0  02:35       0.302     0.000
  YS02001580              0.01     94.78      0  01:57       0.000     0.000
  YS02001583              0.01    144.44      0  01:57       0.000     0.000
  YS02001586              0.37    244.42      0  02:04       0.174     0.000
  YS02001590              0.01      2.44      0  01:57       0.000     0.000
  YS02001596              0.01      0.24      0  02:02       0.000     0.000
  YS02001600              0.01      2.33      0  01:57       0.000     0.000
  YS02001601              0.50    972.70      0  02:03       0.922     0.000
  YS02001602              0.35     61.95      0  02:08       0.070     0.000
  YS02001605              0.01      4.52      0  01:56       0.000     0.000
  YS02001607              0.01      0.10      0  02:02       0.000     0.000
  YS02001610              0.30    480.95      0  02:05       0.339     0.000
  YS02001613              0.01     32.18      0  02:02       0.000     0.000
  YS02001616              0.01     30.70      0  01:56       0.000     0.000
  YS02001619              0.01     41.63      0  01:56       0.000     0.000
  YS02001622              0.01    203.71      0  01:56       0.000     0.000
  YS02001625              0.25   1103.43      0  02:04       0.566     0.000
  YS02001629              0.07    222.62      0  01:56       0.030     0.000
  YS02001633              0.01      0.57      0  02:02       0.000     0.000
  YS02001641              0.01      0.50      0  02:02       0.000     0.000
  YS02001644              0.10    751.93      0  02:01       0.128     0.000
  YS02001649              0.01    151.69      0  02:00       0.001     0.000
  YS02001652              0.01     41.09      0  02:00       0.000     0.000
  YS02001658              0.01    426.89      0  02:00       0.000     0.000
  YS02001748              0.01    360.43      0  02:00       0.001     0.000
  YS02001751              0.01     52.77      0  02:00       0.000     0.000
  YS02001754              0.01     54.75      0  02:00       0.000     0.000
  YS02001757              0.01     64.41      0  02:00       0.000     0.000
  YS02001762              0.01      8.30      0  02:00       0.000     0.000
  YS02001765              0.01      0.86      0  02:02       0.000     0.000
  YS02001767              0.01      0.04      0  02:02       0.000     0.000
  YS02001770              0.01    168.60      0  01:59       0.001     0.000
  YS02001774              0.01      0.74      0  02:02       0.000     0.000
  YS02001779              0.08    433.06      0  01:59       0.048     0.000
  YS02001783              0.01     26.24      0  02:02       0.000     0.000
  YS02001882              0.01     14.08      0  01:58       0.000     0.000
  YS02001890              0.11    189.12      0  02:02       0.041     0.000
  YS02001898              0.01     66.60      0  02:02       0.000     0.000
  YS02001901              0.01     12.62      0  02:02       0.000     0.000
  YS02001907              0.26   1389.53      0  02:02       0.738     0.000
  YS02001915              0.01     58.23      0  02:02       0.000     0.000
  YS02001918              0.01    197.72      0  02:00       0.003     0.000
  YS02001923              0.01    246.71      0  01:59       0.001     0.000
  YS02001926              0.01    664.55      0  01:59       0.004     0.000
  YS02001929              0.01    387.32      0  01:59       0.001     0.000
  YS02006556              0.01      0.66      0  02:02       0.000     0.000
  
  
  **********************
  Storage Volume Summary
  **********************
  
  ------------------------------------------------------------------------------------------------
                         Average    Avg   Evap  Exfil     Maximum    Max    Time of Max    Maximum
                          Volume   Pcnt   Pcnt   Pcnt      Volume   Pcnt     Occurrence    Outflow
  Storage Unit           1000 m³   Full   Loss   Loss     1000 m³   Full    days hr:min        LPS
  ------------------------------------------------------------------------------------------------
  CC-storage               0.461    7.2    0.0    0.0       2.229   34.8       0  00:00    1783.53
  JK-storage               0.001    0.3    0.0    0.0       0.150   51.6       0  00:00    2300.00
  
  
  ***********************
  Outfall Loading Summary
  ***********************
  
  -----------------------------------------------------------
                         Flow       Avg       Max       Total
                         Freq      Flow      Flow      Volume
  Outfall Node           Pcnt       LPS       LPS    10^6 ltr
  -----------------------------------------------------------
  CC-1                  44.58    683.00    683.00       4.465
  CC-2                  44.58    683.00    683.00       4.465
  JK-1                  16.68    884.09   1000.00       2.023
  JK-2                  16.68    884.09   1000.00       2.023
  WSC                   99.94    197.62    516.35       3.865
  -----------------------------------------------------------
  System                44.49   3331.80   3882.35      16.841
  
  
  ********************
  Link Flow Summary
  ********************
  
  -----------------------------------------------------------------------------
                                 Maximum  Time of Max   Maximum    Max/    Max/
                                  |Flow|   Occurrence   |Veloc|    Full    Full
  Link                 Type          LPS  days hr:min     m/sec    Flow   Depth
  -----------------------------------------------------------------------------
  1                    CONDUIT    516.35     0  02:21      2.77    0.18    0.29
  WS02003060WS02003069 CONDUIT    514.56     0  02:19      1.61    0.20    0.33
  WS02003066WSF200     CONDUIT    498.03     0  02:18      2.80    0.08    0.21
  WS02003067WS02003066 CONDUIT    498.05     0  02:18      1.16    0.16    0.41
  WS02003069WS02003072 CONDUIT    514.74     0  02:20      1.34    0.25    0.37
  WS02003072WS02003073 CONDUIT    514.64     0  02:20      1.40    1.11    0.36
  WS02004401WS02004402 CONDUIT    499.59     0  02:14      1.22    0.60    0.83
  WS02004402WS02004403 CONDUIT    499.38     0  02:15      1.24    0.72    0.86
  WS02004403WS02004404 CONDUIT    499.04     0  02:14      1.24    0.36    0.90
  WS02004404WS02004405 CONDUIT    499.33     0  02:16      1.45    4.89    0.93
  WS02004405WS02004406 CONDUIT    499.63     0  02:16      1.46    0.99    0.93
  WS02004406WS02004407 CONDUIT    499.12     0  02:16      1.00    0.22    0.61
  WS02004407WS02004409 CONDUIT    498.94     0  02:16      1.59    0.18    0.46
  WS02004409WS02004410 CONDUIT    498.72     0  02:17      1.06    0.64    0.65
  WS02004410WS02004411 CONDUIT    498.44     0  02:17      1.12    0.68    0.66
  WS02004411WS02004412 CONDUIT    498.26     0  02:17      1.22    0.71    0.67
  WS02004412WS02004413 CONDUIT    498.22     0  02:18      1.22    0.33    0.76
  WS02004413WS02003067 CONDUIT    498.01     0  02:18      1.07    0.21    0.57
  WS02006109WS02006110 CONDUIT    503.78     0  02:00      1.00    0.97    0.99
  WS02006110WS02006113 CONDUIT    504.07     0  02:01      1.21    0.46    0.77
  WS02006111WS02006112 CONDUIT    503.76     0  02:03      1.95    0.24    0.67
  WS02006112WS02006115 CONDUIT    504.82     0  02:08      0.82    0.30    0.85
  WS02006113WS02006111 CONDUIT    520.11     0  02:02      2.40    0.62    0.45
  WS02006115WS02006116 CONDUIT    500.54     0  02:14      1.29    0.64    0.73
  WS02006116WS02004401 CONDUIT    499.55     0  02:14      1.21    0.69    0.81
  WS02006228WS02006109 CONDUIT    502.38     0  02:00      1.06    2.19    1.00
  WS02006229WS02006228 CONDUIT    502.87     0  02:00      1.12    1.67    1.00
  WS02006230WS02006229 CONDUIT    502.50     0  02:00      1.31   11.18    1.00
  WS02006231WS02006230 CONDUIT    518.35     0  02:14      1.39    7.86    0.97
  WS02006232WS02006231 CONDUIT    520.91     0  02:02      1.35    1.09    1.00
  WS02006234WS02006232 CONDUIT    513.72     0  02:02      1.39    1.04    1.00
  WS02006235WS02006234 CONDUIT    508.29     0  01:59      1.32    5.36    1.00
  WS02006238WS02006235 CONDUIT    420.71     0  02:34      1.45    0.94    1.00
  WS02006239WS02006238 CONDUIT    416.02     0  02:34      1.11    1.33    1.00
  WS02006240WS02006239 CONDUIT    415.75     0  02:29      1.24    1.31    1.00
  WS02006242WS02006240 CONDUIT    412.70     0  02:29      1.16    1.64    1.00
  WS02006243WS02006242 CONDUIT    412.55     0  02:29      1.38    0.88    1.00
  WS02006245WS02006243 CONDUIT    412.36     0  02:29      1.44    1.22    1.00
  WS02006247WS02006245 CONDUIT    415.10     0  01:55      1.43    3.29    1.00
  WS02006248WS02006247 CONDUIT    417.67     0  01:54      1.42    0.91    1.00
  WS02006249WS02006248 CONDUIT    413.35     0  02:27      1.36    2.26    1.00
  WS02006251WS02006249 CONDUIT    459.02     0  00:00      2.14    1.32    1.00
  WS02006252WS02006251 CONDUIT    415.55     0  02:02     28.03    1.53    1.00
  WS02006256WS02006235 CONDUIT    288.91     0  00:00      4.23    3.06    1.00
  WSF200WS02003060     CONDUIT    498.12     0  02:19      2.02    0.11    0.27
  YS02001580YS02001583 CONDUIT    128.24     0  01:56      0.78    0.50    1.00
  YS02001583YS02001586 CONDUIT    181.99     0  01:56      0.78    0.28    1.00
  YS02001586YS02001590 CONDUIT    321.91     0  02:02      1.26    0.56    1.00
  YS02001590YS02001593 CONDUIT    318.14     0  02:02      1.13    2.00    1.00
  YS02001593YS02001596 CONDUIT    317.79     0  02:11      1.75    0.50    1.00
  YS02001596YS02001600 CONDUIT    317.90     0  02:13      1.22    0.62    1.00
  YS02001600YS02001601 CONDUIT    317.99     0  02:02      1.12    0.55    1.00
  YS02001601YS02001602 CONDUIT    539.77     0  01:56      1.91    1.95    1.00
  YS02001602YS02001605 CONDUIT    539.24     0  01:56      1.91   11.41    1.00
  YS02001605YS02001607 CONDUIT    537.99     0  01:56      1.90    2.95    1.00
  YS02001607YS02001610 CONDUIT    541.20     0  01:56      0.69    0.51    1.00
  YS02001610YS02001613 CONDUIT    547.72     0  01:56      0.70    0.63    1.00
  YS02001613YS02001616 CONDUIT    556.92     0  01:56      0.71    0.48    1.00
  YS02001616YS02001619 CONDUIT    521.25     0  01:56      0.67    0.90    1.00
  YS02001619YS02001622 CONDUIT    951.88     0  02:18      1.21    1.40    1.00
  YS02001622YS02001625 CONDUIT    952.08     0  02:18      1.21    0.51    1.00
  YS02001625YS02001629 CONDUIT    952.11     0  02:18      1.21    0.45    1.00
  YS02001629YS02163301 CONDUIT    954.03     0  02:19      1.21    1.17    1.00
  YS02001633YS02163601 CONDUIT   1417.86     0  01:58      1.81    1.49    1.00
  YS02001641YS02001644 CONDUIT   1416.80     0  01:58      1.80    4.58    1.00
  YS02001644YS02001647 CONDUIT   1858.73     0  01:58      2.39    1.09    1.00
  YS02001647YS02001649 CONDUIT   1854.95     0  01:58      2.36    0.98    1.00
  YS02001649YS02001757 CONDUIT   2152.74     0  01:58      2.74    1.31    1.00
  YS02001652YS02001649 CONDUIT    916.34     0  02:01      1.17    0.45    1.00
  YS02001655YS02001652 CONDUIT    917.46     0  02:02      1.33    0.45    1.00
  YS02001658YS02001655 CONDUIT    952.75     0  02:02      1.94    0.40    1.00
  YS02001661YS02001658 CONDUIT    963.82     0  02:02      2.39    0.38    1.00
  YS02001664YS02001661 CONDUIT    912.06     0  02:01      2.44    0.29    0.96
  YS02001745YS02001748 CONDUIT    580.03     0  02:00      2.29    0.22    1.00
  YS02001748YS02001751 CONDUIT    581.76     0  02:01      1.78    0.29    1.00
  YS02001751YS02001754 CONDUIT    582.16     0  02:01      1.42    0.28    1.00
  YS02001754YS02001757 CONDUIT    583.10     0  02:01      0.74    0.23    1.00
  YS02001757CaochengTiaoxuchi CONDUIT   3262.01     0  02:05      7.42    1.41    0.76
  YS02001759YS02001757 CONDUIT   1413.68     0  02:00      1.80    1.00    1.00
  YS02001762YS02001759 CONDUIT    816.52     0  02:00      1.04    0.94    1.00
  YS02001765YS02001762 CONDUIT    817.34     0  02:00      1.04    0.77    1.00
  YS02001767YS02001765 CONDUIT    817.13     0  02:00      1.04    1.03    1.00
  YS02001770YS02001767 CONDUIT    817.24     0  02:00      1.04    3.24    1.00
  YS02001774YS02001770 CONDUIT    476.48     0  01:59      0.61    0.30    1.00
  YS02001779YS02001774 CONDUIT    483.82     0  01:59      0.62    0.24    1.00
  YS02001783YS02001784 CONDUIT   1161.02     0  02:01      2.31    1.60    1.00
  YS02001784YS02001785 CONDUIT   1162.24     0  02:01      2.31    2.70    1.00
  YS02001786YS02001788 CONDUIT   1162.01     0  02:01      2.48    2.24    0.89
  YS02001788YS02001790 CONDUIT   1173.77     0  01:59      2.72    0.87    0.84
  YS02001790YS02001791 CONDUIT   1294.70     0  02:01      3.43    1.41    0.70
  YS02001791YS02001793 CONDUIT   1242.82     0  02:02      6.36    0.53    0.43
  YS02001793JiankangQianchi CONDUIT   1290.10     0  02:02     24.59    0.10    0.50
  YS02001882YS02001884 CONDUIT     51.43     0  01:57      0.11    0.06    1.00
  YS02001884YS02001887 CONDUIT     88.41     0  01:57      0.11    0.12    1.00
  YS02001887YS02001890 CONDUIT    696.27     0  02:02      0.89    1.19    1.00
  YS02001890YS02001895 CONDUIT    577.76     0  02:02      0.74    0.27    1.00
  YS02001895YS02001898 CONDUIT    573.28     0  02:02      0.73    0.99    1.00
  YS02001898YS02001901 CONDUIT    517.12     0  02:02      0.66    0.33    1.00
  YS02001901YS02001904 CONDUIT    520.87     0  02:02      0.66    0.81    1.00
  YS02001904YS02001907 CONDUIT    525.45     0  02:02      0.67    0.18    1.00
  YS02001907YS02006553 CONDUIT    794.83     0  02:15      0.88    0.93    1.00
  YS02001910YS02001907 CONDUIT   1161.78     0  02:03      1.48    0.65    1.00
  YS02001915YS02001910 CONDUIT   1161.82     0  02:03      1.48    0.58    1.00
  YS02001918YS02001915 CONDUIT    496.54     0  01:59      0.63    0.27    1.00
  YS02001920YS02001918 CONDUIT    492.79     0  01:59      0.64    0.48    1.00
  YS02001923YS02001920 CONDUIT    494.42     0  01:59      0.70    0.22    1.00
  YS02001926YS02001923 CONDUIT    577.95     0  01:59      0.97    0.83    1.00
  YS02001929YS02001926 CONDUIT    508.37     0  01:59      1.18    0.24    1.00
  YS02006553YS02006556 CONDUIT    794.96     0  02:16      1.01    0.68    1.00
  YS02006556YS02006558 CONDUIT    796.22     0  02:16      1.01    0.63    1.00
  YS02006558YS02006561 CONDUIT   1170.44     0  01:59      4.14    2.59    1.00
  YS02006561YS02001783 CONDUIT   1160.99     0  02:01      2.31    0.60    1.00
  YS02163301YS02001633 CONDUIT    954.20     0  02:18      1.21    0.90    1.00
  YS02163601YS02164001 CONDUIT   1417.19     0  01:58      1.80    1.26    1.00
  YS02164001YS02001641 CONDUIT   1415.80     0  01:58      1.80    1.93    1.00
  CC-R1                PUMP       683.00     0  00:00              1.00
  CC-R2                PUMP       683.00     0  00:00              1.00
  CC-S1                PUMP       200.00     0  00:00              1.00
  CC-S2                PUMP       200.00     0  00:00              1.00
  JK-R1                PUMP      1000.00     0  00:00              1.00
  JK-R2                PUMP      1000.00     0  00:00              1.00
  JK-S                 PUMP       300.00     0  00:00              1.00
  
  
  ***************************
  Flow Classification Summary
  ***************************
  
  -------------------------------------------------------------------------------------
                      Adjusted    ---------- Fraction of Time in Flow Class ---------- 
                       /Actual         Up    Down  Sub   Sup   Up    Down  Norm  Inlet 
  Conduit               Length    Dry  Dry   Dry   Crit  Crit  Crit  Crit  Ltd   Ctrl  
  -------------------------------------------------------------------------------------
  1                       1.00   0.00  0.00  0.00  0.00  1.00  0.00  0.00  0.28  0.00
  WS02003060WS02003069    1.00   0.00  0.00  0.00  0.97  0.03  0.00  0.00  0.80  0.00
  WS02003066WSF200        1.00   0.05  0.00  0.00  0.00  0.95  0.00  0.00  0.92  0.00
  WS02003067WS02003066    1.00   0.05  0.00  0.00  0.95  0.00  0.00  0.00  0.00  0.00
  WS02003069WS02003072    1.00   0.00  0.00  0.00  0.99  0.01  0.00  0.00  0.83  0.00
  WS02003072WS02003073    1.00   0.00  0.00  0.00  0.00  0.00  0.00  1.00  0.00  0.00
  WS02004401WS02004402    1.00   0.02  0.00  0.00  0.98  0.00  0.00  0.00  0.00  0.00
  WS02004402WS02004403    1.00   0.02  0.00  0.00  0.98  0.00  0.00  0.00  0.00  0.00
  WS02004403WS02004404    1.00   0.00  0.03  0.00  0.97  0.00  0.00  0.00  0.00  0.00
  WS02004404WS02004405    1.00   0.00  0.00  0.00  1.00  0.00  0.00  0.00  0.00  0.00
  WS02004405WS02004406    1.00   0.00  0.00  0.00  1.00  0.00  0.00  0.00  0.00  0.00
  WS02004406WS02004407    1.00   0.00  0.03  0.00  0.97  0.00  0.00  0.00  0.00  0.00
  WS02004407WS02004409    1.00   0.03  0.00  0.00  0.96  0.01  0.00  0.00  0.96  0.00
  WS02004409WS02004410    1.00   0.03  0.00  0.00  0.96  0.00  0.00  0.00  0.00  0.00
  WS02004410WS02004411    1.00   0.04  0.00  0.00  0.96  0.00  0.00  0.00  0.00  0.00
  WS02004411WS02004412    1.00   0.04  0.00  0.00  0.96  0.00  0.00  0.00  0.00  0.00
  WS02004412WS02004413    1.00   0.04  0.00  0.00  0.96  0.00  0.00  0.00  0.00  0.00
  WS02004413WS02003067    1.00   0.04  0.01  0.00  0.00  0.00  0.95  0.00  0.00  0.00
  WS02006109WS02006110    1.00   0.00  0.01  0.00  0.98  0.00  0.01  0.00  0.00  0.00
  WS02006110WS02006113    1.00   0.01  0.01  0.00  0.98  0.00  0.00  0.00  0.00  0.00
  WS02006111WS02006112    1.00   0.02  0.00  0.00  0.98  0.00  0.00  0.00  0.98  0.00
  WS02006112WS02006115    1.00   0.02  0.00  0.00  0.97  0.00  0.00  0.00  0.00  0.00
  WS02006113WS02006111    1.00   0.02  0.00  0.00  0.00  0.98  0.00  0.00  0.09  0.00
  WS02006115WS02006116    1.00   0.02  0.00  0.00  0.97  0.00  0.00  0.01  0.00  0.00
  WS02006116WS02004401    1.00   0.02  0.00  0.00  0.98  0.00  0.00  0.00  0.00  0.00
  WS02006228WS02006109    1.00   0.00  0.00  0.00  1.00  0.00  0.00  0.00  0.00  0.00
  WS02006229WS02006228    1.00   0.00  0.00  0.00  0.99  0.00  0.00  0.01  0.00  0.00
  WS02006230WS02006229    1.00   0.00  0.00  0.00  0.99  0.00  0.00  0.01  0.03  0.00
  WS02006231WS02006230    1.00   0.00  0.00  0.00  0.18  0.00  0.81  0.00  0.00  0.00
  WS02006232WS02006231    1.00   0.00  0.00  0.00  0.99  0.00  0.00  0.00  0.00  0.00
  WS02006234WS02006232    1.00   0.00  0.00  0.00  1.00  0.00  0.00  0.00  0.02  0.00
  WS02006235WS02006234    1.00   0.00  0.00  0.00  0.91  0.00  0.09  0.00  0.00  0.00
  WS02006238WS02006235    1.00   0.00  0.00  0.00  1.00  0.00  0.00  0.00  0.00  0.00
  WS02006239WS02006238    1.00   0.00  0.00  0.00  1.00  0.00  0.00  0.00  0.07  0.00
  WS02006240WS02006239    1.00   0.00  0.00  0.00  0.90  0.00  0.00  0.10  0.34  0.00
  WS02006242WS02006240    1.00   0.00  0.00  0.00  0.91  0.00  0.09  0.00  0.00  0.00
  WS02006243WS02006242    1.00   0.00  0.00  0.00  0.98  0.00  0.00  0.02  0.67  0.00
  WS02006245WS02006243    1.00   0.00  0.00  0.00  0.66  0.00  0.00  0.34  0.00  0.00
  WS02006247WS02006245    1.00   0.00  0.00  0.00  0.96  0.00  0.00  0.03  0.00  0.00
  WS02006248WS02006247    1.00   0.00  0.00  0.00  0.98  0.00  0.00  0.02  0.42  0.00
  WS02006249WS02006248    1.00   0.00  0.00  0.00  0.39  0.00  0.61  0.00  0.00  0.00
  WS02006251WS02006249    1.00   0.00  0.00  0.00  0.99  0.01  0.00  0.00  0.65  0.00
  WS02006252WS02006251    1.00   0.01  0.68  0.00  0.06  0.00  0.24  0.00  0.00  0.00
  WS02006256WS02006235    1.00   0.00  0.00  0.00  0.95  0.05  0.00  0.00  0.01  0.00
  WSF200WS02003060        1.00   0.00  0.05  0.00  0.41  0.54  0.00  0.00  0.75  0.00
  YS02001580YS02001583    1.00   0.24  0.58  0.00  0.17  0.00  0.00  0.00  0.68  0.00
  YS02001583YS02001586    1.00   0.42  0.35  0.00  0.23  0.00  0.00  0.00  0.68  0.00
  YS02001586YS02001590    1.00   0.13  0.00  0.00  0.41  0.04  0.00  0.42  0.37  0.00
  YS02001590YS02001593    1.00   0.13  0.01  0.00  0.09  0.00  0.77  0.00  0.00  0.00
  YS02001593YS02001596    1.00   0.14  0.00  0.00  0.11  0.01  0.00  0.74  0.02  0.00
  YS02001596YS02001600    1.00   0.14  0.00  0.00  0.18  0.01  0.00  0.67  0.05  0.00
  YS02001600YS02001601    1.00   0.13  0.01  0.00  0.86  0.00  0.00  0.00  0.62  0.00
  YS02001601YS02001602    1.00   0.13  0.01  0.00  0.86  0.00  0.00  0.00  0.00  0.00
  YS02001602YS02001605    1.00   0.14  0.00  0.00  0.86  0.00  0.00  0.00  0.00  0.00
  YS02001605YS02001607    1.00   0.14  0.00  0.00  0.86  0.00  0.00  0.00  0.00  0.00
  YS02001607YS02001610    1.00   0.13  0.01  0.00  0.86  0.00  0.00  0.00  0.02  0.00
  YS02001610YS02001613    1.00   0.13  0.00  0.00  0.87  0.00  0.00  0.00  0.01  0.00
  YS02001613YS02001616    1.00   0.13  0.00  0.00  0.87  0.00  0.00  0.00  0.01  0.00
  YS02001616YS02001619    1.00   0.13  0.00  0.00  0.87  0.00  0.00  0.00  0.00  0.00
  YS02001619YS02001622    1.00   0.13  0.00  0.00  0.87  0.00  0.00  0.00  0.29  0.00
  YS02001622YS02001625    1.00   0.13  0.00  0.00  0.87  0.00  0.00  0.00  0.05  0.00
  YS02001625YS02001629    1.00   0.13  0.06  0.00  0.14  0.00  0.68  0.00  0.00  0.00
  YS02001629YS02163301    1.00   0.16  0.01  0.00  0.83  0.00  0.00  0.00  0.00  0.00
  YS02001633YS02163601    1.00   0.00  0.01  0.00  0.99  0.00  0.00  0.00  0.15  0.00
  YS02001641YS02001644    1.00   0.00  0.01  0.00  0.99  0.00  0.00  0.00  0.00  0.00
  YS02001644YS02001647    1.00   0.00  0.18  0.00  0.82  0.00  0.00  0.00  0.00  0.00
  YS02001647YS02001649    1.00   0.00  0.18  0.00  0.49  0.33  0.00  0.00  0.57  0.00
  YS02001649YS02001757    1.00   0.00  0.00  0.00  0.85  0.15  0.00  0.00  0.75  0.00
  YS02001652YS02001649    1.00   0.00  0.00  0.00  0.96  0.04  0.00  0.00  0.76  0.00
  YS02001655YS02001652    1.00   0.00  0.00  0.00  0.16  0.01  0.00  0.82  0.10  0.00
  YS02001658YS02001655    1.00   0.00  0.15  0.00  0.59  0.27  0.00  0.00  0.75  0.00
  YS02001661YS02001658    1.00   0.14  0.00  0.00  0.43  0.42  0.00  0.00  0.73  0.00
  YS02001664YS02001661    1.00   0.13  0.00  0.00  0.75  0.12  0.00  0.00  0.86  0.00
  YS02001745YS02001748    1.00   0.00  0.00  0.00  0.03  0.01  0.00  0.97  0.01  0.00
  YS02001748YS02001751    1.00   0.00  0.00  0.00  0.75  0.25  0.00  0.00  0.84  0.00
  YS02001751YS02001754    1.00   0.00  0.00  0.00  0.09  0.01  0.00  0.89  0.04  0.00
  YS02001754YS02001757    1.00   0.00  0.00  0.00  1.00  0.00  0.00  0.00  0.88  0.00
  YS02001757CaochengTiaoxuchi    1.00   0.00  0.00  0.00  0.04  0.96  0.00  0.00  0.11  0.00
  YS02001759YS02001757    1.00   0.00  0.00  0.00  1.00  0.00  0.00  0.00  0.67  0.00
  YS02001762YS02001759    1.00   0.00  0.00  0.00  1.00  0.00  0.00  0.00  0.06  0.00
  YS02001765YS02001762    1.00   0.00  0.00  0.00  1.00  0.00  0.00  0.00  0.74  0.00
  YS02001767YS02001765    1.00   0.00  0.00  0.00  1.00  0.00  0.00  0.00  0.00  0.00
  YS02001770YS02001767    1.00   0.00  0.00  0.00  1.00  0.00  0.00  0.00  0.00  0.00
  YS02001774YS02001770    1.00   0.00  0.14  0.00  0.70  0.00  0.16  0.00  0.04  0.00
  YS02001779YS02001774    1.00   0.00  0.00  0.00  1.00  0.00  0.00  0.00  0.80  0.00
  YS02001783YS02001784    1.00   0.00  0.19  0.00  0.81  0.00  0.00  0.00  0.56  0.00
  YS02001784YS02001785    1.00   0.00  0.00  0.00  1.00  0.00  0.00  0.00  0.18  0.00
  YS02001786YS02001788    1.00   0.00  0.00  0.00  0.79  0.20  0.00  0.00  0.00  0.00
  YS02001788YS02001790    1.00   0.00  0.00  0.00  0.22  0.78  0.00  0.00  0.82  0.00
  YS02001790YS02001791    1.00   0.00  0.00  0.00  0.01  0.99  0.00  0.00  0.15  0.00
  YS02001791YS02001793    1.00   0.00  0.00  0.00  0.00  1.00  0.00  0.00  0.01  0.00
  YS02001793JiankangQianchi    1.00   0.00  0.00  0.00  0.00  1.00  0.00  0.00  0.14  0.00
  YS02001882YS02001884    1.00   0.16  0.01  0.00  0.83  0.00  0.00  0.00  0.00  0.00
  YS02001884YS02001887    1.00   0.06  0.05  0.00  0.89  0.00  0.00  0.00  0.00  0.00
  YS02001887YS02001890    1.00   0.00  0.00  0.00  0.97  0.00  0.03  0.00  0.00  0.00
  YS02001890YS02001895    1.00   0.00  0.17  0.00  0.83  0.00  0.00  0.00  0.00  0.00
  YS02001895YS02001898    1.00   0.17  0.00  0.00  0.81  0.00  0.02  0.00  0.00  0.00
  YS02001898YS02001901    1.00   0.17  0.00  0.00  0.82  0.00  0.00  0.00  0.01  0.00
  YS02001901YS02001904    1.00   0.17  0.00  0.00  0.83  0.00  0.00  0.00  0.00  0.00
  YS02001904YS02001907    1.00   0.00  0.17  0.00  0.83  0.00  0.00  0.00  0.00  0.00
  YS02001907YS02006553    1.00   0.00  0.02  0.00  0.98  0.00  0.00  0.00  0.00  0.00
  YS02001910YS02001907    1.00   0.00  0.00  0.00  0.97  0.00  0.00  0.03  0.12  0.00
  YS02001915YS02001910    1.00   0.00  0.00  0.00  0.96  0.04  0.00  0.00  0.17  0.00
  YS02001918YS02001915    1.00   0.00  0.01  0.00  0.98  0.02  0.00  0.00  0.76  0.00
  YS02001920YS02001918    1.00   0.00  0.01  0.00  0.99  0.00  0.00  0.00  0.00  0.00
  YS02001923YS02001920    1.00   0.00  0.00  0.00  1.00  0.00  0.00  0.00  0.94  0.00
  YS02001926YS02001923    1.00   0.00  0.07  0.00  0.05  0.00  0.88  0.00  0.00  0.00
  YS02001929YS02001926    1.00   0.00  0.13  0.00  0.87  0.00  0.00  0.00  0.83  0.00
  YS02006553YS02006556    1.00   0.01  0.00  0.00  0.99  0.00  0.00  0.00  0.03  0.00
  YS02006556YS02006558    1.00   0.00  0.00  0.00  1.00  0.00  0.00  0.00  0.00  0.00
  YS02006558YS02006561    1.00   0.19  0.00  0.00  0.05  0.77  0.00  0.00  0.19  0.00
  YS02006561YS02001783    1.00   0.19  0.00  0.00  0.07  0.74  0.00  0.00  0.70  0.00
  YS02163301YS02001633    1.00   0.00  0.16  0.00  0.84  0.00  0.00  0.00  0.00  0.00
  YS02163601YS02164001    1.00   0.00  0.08  0.00  0.92  0.00  0.00  0.00  0.00  0.00
  YS02164001YS02001641    1.00   0.01  0.08  0.00  0.92  0.00  0.00  0.00  0.06  0.00
  
  
  *************************
  Conduit Surcharge Summary
  *************************
  
  ----------------------------------------------------------------------------
                                                           Hours        Hours 
                         --------- Hours Full --------   Above Full   Capacity
  Conduit                Both Ends  Upstream  Dnstream   Normal Flow   Limited
  ----------------------------------------------------------------------------
  WS02003072WS02003073        0.01      0.01      0.01      0.54         0.01
  WS02004404WS02004405        0.01      0.01      0.01      2.22         0.01
  WS02006109WS02006110        0.01      0.01      1.36      0.01         0.01
  WS02006110WS02006113        0.01      0.01      1.33      0.01         0.01
  WS02006111WS02006112        0.01      0.01      1.42      0.01         0.01
  WS02006112WS02006115        0.01      0.01      0.24      0.01         0.01
  WS02006228WS02006109        1.28      1.36      1.28      1.67         1.28
  WS02006229WS02006228        1.27      1.29      1.27      1.53         1.27
  WS02006230WS02006229        1.43      1.47      1.43      3.14         1.43
  WS02006231WS02006230        0.01      0.01      0.40      2.43         0.01
  WS02006232WS02006231        0.35      0.35      1.37      0.36         0.01
  WS02006234WS02006232        1.23      1.23      1.37      0.03         0.26
  WS02006235WS02006234        1.03      1.03      1.28      2.20         0.24
  WS02006238WS02006235        1.30      1.30      1.39      0.01         0.01
  WS02006239WS02006238        1.33      1.37      1.33      1.50         0.97
  WS02006240WS02006239        1.29      1.31      1.29      1.50         1.03
  WS02006242WS02006240        1.30      1.30      1.44      1.56         0.01
  WS02006243WS02006242        1.32      1.32      1.40      0.01         0.04
  WS02006245WS02006243        1.30      1.31      1.31      1.52         1.17
  WS02006247WS02006245        1.30      1.34      1.30      1.77         1.30
  WS02006248WS02006247        1.30      1.30      1.32      0.01         0.03
  WS02006249WS02006248        1.29      1.29      1.31      1.66         0.01
  WS02006251WS02006249        1.31      1.32      1.31      1.58         1.25
  WS02006252WS02006251        1.81      1.81      1.81      1.82         0.01
  WS02006256WS02006235        1.48      2.25      5.17      0.79         0.16
  YS02001580YS02001583        0.47      0.47      0.50      0.01         0.01
  YS02001583YS02001586        0.48      0.48      0.57      0.01         0.01
  YS02001586YS02001590        0.58      0.58      0.64      0.01         0.01
  YS02001590YS02001593        0.64      0.64      0.66      0.69         0.01
  YS02001593YS02001596        0.65      0.65      0.74      0.01         0.01
  YS02001596YS02001600        0.78      0.78      0.88      0.01         0.01
  YS02001600YS02001601        0.95      0.95      1.28      0.01         0.01
  YS02001601YS02001602        1.14      1.14      1.32      0.91         0.01
  YS02001602YS02001605        1.08      1.08      1.14      2.10         0.01
  YS02001605YS02001607        1.03      1.08      1.03      1.23         1.03
  YS02001607YS02001610        0.57      0.57      0.60      0.01         0.01
  YS02001610YS02001613        0.57      0.57      0.60      0.01         0.01
  YS02001613YS02001616        0.52      0.52      0.57      0.01         0.01
  YS02001616YS02001619        0.51      0.51      0.52      0.01         0.01
  YS02001619YS02001622        0.50      0.51      0.50      0.68         0.48
  YS02001622YS02001625        0.50      0.50      0.69      0.01         0.01
  YS02001625YS02001629        0.41      0.41      0.69      0.01         0.01
  YS02001629YS02163301        0.67      0.67      0.67      0.32         0.30
  YS02001633YS02163601        0.69      0.69      0.72      0.43         0.43
  YS02001641YS02001644        0.52      0.58      0.52      1.35         0.50
  YS02001644YS02001647        0.31      0.31      0.52      0.04         0.01
  YS02001647YS02001649        0.31      0.31      0.33      0.01         0.01
  YS02001649YS02001757        0.31      0.33      0.31      0.32         0.22
  YS02001652YS02001649        0.25      0.25      0.33      0.01         0.01
  YS02001655YS02001652        0.17      0.17      0.23      0.01         0.01
  YS02001658YS02001655        0.11      0.11      0.17      0.01         0.01
  YS02001661YS02001658        0.01      0.01      0.11      0.01         0.01
  YS02001664YS02001661        0.01      0.01      0.02      0.01         0.01
  YS02001745YS02001748        0.01      0.01      0.05      0.01         0.01
  YS02001748YS02001751        0.09      0.09      0.13      0.01         0.01
  YS02001751YS02001754        0.13      0.13      0.17      0.01         0.01
  YS02001754YS02001757        0.19      0.19      0.31      0.01         0.01
  YS02001757CaochengTiaoxuchi        0.01      0.31      0.01      0.40         0.01
  YS02001759YS02001757        0.27      0.27      0.31      0.01         0.01
  YS02001762YS02001759        0.26      0.26      0.27      0.01         0.02
  YS02001765YS02001762        0.25      0.25      0.26      0.01         0.01
  YS02001767YS02001765        0.23      0.23      0.25      0.01         0.03
  YS02001770YS02001767        0.23      0.24      0.23      0.48         0.23
  YS02001774YS02001770        0.23      0.23      0.26      0.01         0.01
  YS02001779YS02001774        0.19      0.19      0.26      0.01         0.01
  YS02001783YS02001784        0.42      0.44      0.42      0.57         0.42
  YS02001784YS02001785        0.33      0.42      0.33      0.77         0.33
  YS02001786YS02001788        0.01      0.33      0.01      0.65         0.01
  YS02001790YS02001791        0.01      0.01      0.01      0.41         0.01
  YS02001882YS02001884        0.39      0.39      0.40      0.01         0.01
  YS02001884YS02001887        0.42      0.42      0.43      0.01         0.01
  YS02001887YS02001890        0.44      0.44      0.45      0.07         0.01
  YS02001890YS02001895        0.38      0.38      0.47      0.01         0.01
  YS02001895YS02001898        0.37      0.37      0.38      0.01         0.01
  YS02001898YS02001901        0.38      0.38      0.42      0.01         0.01
  YS02001901YS02001904        0.41      0.41      0.42      0.01         0.01
  YS02001904YS02001907        0.41      0.41      0.64      0.01         0.01
  YS02001907YS02006553        0.78      0.78      0.84      0.01         0.01
  YS02001910YS02001907        0.47      0.47      0.63      0.01         0.01
  YS02001915YS02001910        0.39      0.39      0.47      0.01         0.01
  YS02001918YS02001915        0.31      0.31      0.39      0.01         0.01
  YS02001920YS02001918        0.31      0.31      0.32      0.01         0.01
  YS02001923YS02001920        0.27      0.27      0.32      0.01         0.01
  YS02001926YS02001923        0.02      0.02      0.03      0.01         0.01
  YS02001929YS02001926        0.01      0.01      0.03      0.01         0.01
  YS02006553YS02006556        0.54      0.54      0.64      0.01         0.01
  YS02006556YS02006558        0.59      0.59      0.65      0.01         0.01
  YS02006558YS02006561        0.35      0.53      0.35      0.73         0.35
  YS02006561YS02001783        0.28      0.28      0.44      0.01         0.01
  YS02163301YS02001633        0.67      0.67      0.71      0.01         0.02
  YS02163601YS02164001        0.60      0.60      0.72      0.25         0.01
  YS02164001YS02001641        0.58      0.60      0.58      0.66         0.47
  
  
  ***************
  Pumping Summary
  ***************
  
  ---------------------------------------------------------------------------------------------------------
                                                  Min       Avg       Max     Total     Power    % Time Off
                        Percent   Number of      Flow      Flow      Flow    Volume     Usage    Pump Curve
  Pump                 Utilized   Start-Ups       LPS       LPS       LPS  10^6 ltr     Kw-hr    Low   High
  ---------------------------------------------------------------------------------------------------------
  CC-R1                   22.94          36      0.00    683.00    683.00     4.466     70.98    0.0  100.0
  CC-R2                   22.94          36      0.00    683.00    683.00     4.466     70.98    0.0  100.0
  CC-S1                   22.94          36      0.00    200.00    200.00     1.308     10.73    0.0   44.3
  CC-S2                   22.94          36      0.00    200.00    200.00     1.308     10.73    0.0   44.3
  JK-R1                    9.85        1091      0.00    884.09   1000.00     2.062      4.84    0.0    0.0
  JK-R2                    9.85        1091      0.00    884.09   1000.00     2.062      4.84    0.0    0.0
  JK-S                     9.85        1091      0.00    293.82    300.00     0.787     18.08    0.0    0.0
  

  Analysis begun on:  Wed Feb 26 11:08:58 2025
  Analysis ended on:  Wed Feb 26 11:09:00 2025
  Total elapsed time: 00:00:02