
  EPA STORM WATER MANAGEMENT MODEL - VERSION 5.2 (Build 5.2.4)
  PYSWMM TOOLKIT API - VERSION v1.0 (2023-11-27)
  ------------------------------------------------------------

  WARNING 04: minimum elevation drop used for Conduit WS02004404WS02004405
  WARNING 03: negative offset ignored for Link YS02001904YS02001907
  
  ****************
  Analysis Options
  ****************
  Flow Units ............... LPS
  Process Models:
    Rainfall/Runoff ........ YES
    RDII ................... NO
    Snowmelt ............... NO
    Groundwater ............ NO
    Flow Routing ........... YES
    Ponding Allowed ........ NO
    Water Quality .......... NO
  Infiltration Method ...... HORTON
  Flow Routing Method ...... DYNWAVE
  Surcharge Method ......... EXTRAN
  Starting Date ............ 08/28/2015 08:00:00
  Ending Date .............. 08/28/2015 16:00:00
  Antecedent Dry Days ...... 8.0
  Report Time Step ......... 00:01:00
  Wet Time Step ............ 00:01:00
  Dry Time Step ............ 00:01:00
  Routing Time Step ........ 30.00 sec
  Variable Time Step ....... YES
  Maximum Trials ........... 8
  Number of Threads ........ 4
  Head Tolerance ........... 0.001500 m
  
  
  **************************        Volume         Depth
  Runoff Quantity Continuity     hectare-m            mm
  **************************     ---------       -------
  Total Precipitation ......         1.447        43.610
  Evaporation Loss .........         0.000         0.000
  Infiltration Loss ........         0.093         2.817
  Surface Runoff ...........         1.320        39.808
  Final Storage ............         0.033         0.994
  Continuity Error (%) .....        -0.021
  
  
  **************************        Volume        Volume
  Flow Routing Continuity        hectare-m      10^6 ltr
  **************************     ---------     ---------
  Dry Weather Inflow .......         0.025         0.248
  Wet Weather Inflow .......         1.320        13.199
  Groundwater Inflow .......         0.000         0.000
  RDII Inflow ..............         0.000         0.000
  External Inflow ..........         0.083         0.825
  External Outflow .........         1.590        15.902
  Flooding Loss ............         0.176         1.760
  Evaporation Loss .........         0.000         0.000
  Exfiltration Loss ........         0.000         0.000
  Initial Stored Volume ....         0.243         2.431
  Final Stored Volume ......         0.038         0.381
  Continuity Error (%) .....        -8.018
  
  
  *************************
  Highest Continuity Errors
  *************************
  Node JK-storage (-35.07%)
  Node WS02006256 (-17.92%)
  Node YS02001583 (-12.92%)
  Node YS02001884 (5.30%)
  Node YS02001774 (1.84%)
  
  
  ***************************
  Time-Step Critical Elements
  ***************************
  Link YS02001793JiankangQianchi (40.14%)
  Link WS02006238WS02006235 (32.49%)
  Link WS02004404WS02004405 (7.56%)
  Link WS02003066WSF200 (4.51%)
  Link WS02006235WS02006234 (1.74%)
  
  
  ********************************
  Highest Flow Instability Indexes
  ********************************
  Link WS02006256WS02006235 (56)
  Link WS02006235WS02006234 (38)
  Link WS02006252WS02006251 (34)
  Link WS02006238WS02006235 (34)
  Link WS02006113WS02006111 (33)
  
  
  *********************************
  Most Frequent Nonconverging Nodes
  *********************************
  Node CC-1 (42.70%)
  Node CC-2 (42.70%)
  Node JK-1 (42.70%)
  Node JK-2 (42.70%)
  Node WSC (42.70%)
  
  
  *************************
  Routing Time Step Summary
  *************************
  Minimum Time Step           :     0.01 sec
  Average Time Step           :     2.89 sec
  Maximum Time Step           :     6.43 sec
  % of Time in Steady State   :     0.00
  Average Iterations per Step :     5.26
  % of Steps Not Converging   :    42.70
  Time Step Frequencies       :
     30.000 - 13.228 sec      :     0.00 %
     13.228 -  5.833 sec      :     7.63 %
      5.833 -  2.572 sec      :    41.39 %
      2.572 -  1.134 sec      :    35.00 %
      1.134 -  0.500 sec      :    15.98 %
  
  
  ***************************
  Subcatchment Runoff Summary
  ***************************
  
  ------------------------------------------------------------------------------------------------------------------------------
                            Total      Total      Total      Total     Imperv       Perv      Total       Total     Peak  Runoff
                           Precip      Runon       Evap      Infil     Runoff     Runoff     Runoff      Runoff   Runoff   Coeff
  Subcatchment                 mm         mm         mm         mm         mm         mm         mm    10^6 ltr      LPS
  ------------------------------------------------------------------------------------------------------------------------------
  sub60                     43.61       0.00       0.00       1.73      37.17       3.51      40.68        0.53   331.49   0.933
  sub61                     43.61       0.00       0.00       2.50      35.06       4.92      39.98        0.73   454.99   0.917
  sub62                     43.61       0.00       0.00       1.15      38.83       2.34      41.17        1.13   639.89   0.944
  sub63                     43.61       0.00       0.00       4.58      29.99       8.07      38.06        0.86   491.88   0.873
  sub64                     43.61       0.00       0.00       2.32      35.86       4.23      40.08        0.96   507.81   0.919
  sub65                     43.61       0.00       0.00       2.01      36.68       3.67      40.35        1.11   564.94   0.925
  sub66                     43.61       0.00       0.00       5.57      29.89       7.07      36.96        1.72   706.64   0.848
  sub67                     43.61       0.00       0.00       1.12      38.87       2.37      41.25        0.77   510.45   0.946
  sub68                     43.61       0.00       0.00       2.07      36.31       4.04      40.35        1.11   654.13   0.925
  sub69                     43.61       0.00       0.00       1.80      36.95       4.74      41.70        1.54   762.52   0.956
  sub70                     43.61       0.00       0.00       5.89      28.62       8.94      37.55        1.08   401.73   0.861
  sub71                     43.61       0.00       0.00       1.18      38.79       2.31      41.10        1.07   553.88   0.943
  sub72                     43.61       0.00       0.00       1.05      39.15       2.01      41.16        0.57   263.11   0.944
  
  
  ******************
  Node Depth Summary
  ******************
  
  ---------------------------------------------------------------------------------
                                 Average  Maximum  Maximum  Time of Max    Reported
                                   Depth    Depth      HGL   Occurrence   Max Depth
  Node                 Type       Meters   Meters   Meters  days hr:min      Meters
  ---------------------------------------------------------------------------------
  WS02003060           JUNCTION     0.19     0.37     5.30     0  02:12        0.37
  WS02003066           JUNCTION     0.16     0.29     5.84     0  02:12        0.29
  WS02003067           JUNCTION     0.44     0.68     6.00     0  02:11        0.68
  WS02003069           JUNCTION     0.21     0.41     5.00     0  02:13        0.41
  WS02003072           JUNCTION     0.27     0.48     4.85     0  02:14        0.48
  WS02003073           JUNCTION     0.15     0.29     4.35     0  02:15        0.29
  WS02004401           JUNCTION     0.53     0.82     6.82     0  02:09        0.82
  WS02004402           JUNCTION     0.56     0.85     6.81     0  02:09        0.85
  WS02004403           JUNCTION     0.58     0.86     6.79     0  02:09        0.86
  WS02004404           JUNCTION     0.65     0.94     6.79     0  02:09        0.94
  WS02004405           JUNCTION     0.65     0.93     6.78     0  02:09        0.93
  WS02004406           JUNCTION     0.66     0.93     6.76     0  02:09        0.93
  WS02004407           JUNCTION     0.15     0.28     6.60     0  02:10        0.28
  WS02004409           JUNCTION     0.32     0.64     6.41     0  02:10        0.64
  WS02004410           JUNCTION     0.35     0.65     6.37     0  02:10        0.65
  WS02004411           JUNCTION     0.37     0.66     6.34     0  02:11        0.66
  WS02004412           JUNCTION     0.39     0.67     6.31     0  02:11        0.67
  WS02004413           JUNCTION     0.55     0.84     6.31     0  02:11        0.83
  WS02006109           JUNCTION     0.59     0.93     7.55     0  01:53        0.93
  WS02006110           JUNCTION     0.60     0.89     7.48     0  02:00        0.89
  WS02006111           JUNCTION     0.15     0.28     6.98     0  01:58        0.28
  WS02006112           JUNCTION     0.68     1.02     6.90     0  02:03        1.01
  WS02006113           JUNCTION     0.23     0.44     7.33     0  02:00        0.43
  WS02006115           JUNCTION     0.41     0.72     6.86     0  02:08        0.72
  WS02006116           JUNCTION     0.50     0.80     6.84     0  02:09        0.80
  WS02006228           JUNCTION     0.58     0.97     7.62     0  01:53        0.96
  WS02006229           JUNCTION     0.55     0.96     7.66     0  01:53        0.96
  WS02006230           JUNCTION     0.55     1.03     7.77     0  01:53        1.02
  WS02006231           JUNCTION     0.37     0.83     7.95     0  01:57        0.78
  WS02006232           JUNCTION     0.49     1.11     8.15     0  02:14        1.06
  WS02006234           JUNCTION     0.41     1.28     8.43     0  02:14        1.16
  WS02006235           JUNCTION     0.45     1.24     8.40     0  01:57        1.24
  WS02006238           JUNCTION     0.48     1.32     8.46     0  01:57        1.32
  WS02006239           JUNCTION     0.44     1.34     8.55     0  01:57        1.34
  WS02006240           JUNCTION     0.40     1.31     8.60     0  02:19        1.31
  WS02006242           JUNCTION     0.47     1.39     8.66     0  02:04        1.39
  WS02006243           JUNCTION     0.40     1.28     8.70     0  02:03        1.28
  WS02006245           JUNCTION     0.41     1.22     8.71     0  02:04        1.22
  WS02006247           JUNCTION     0.43     1.20     8.70     0  02:04        1.20
  WS02006248           JUNCTION     0.40     1.10     8.69     0  01:55        1.10
  WS02006249           JUNCTION     0.43     1.09     8.69     0  01:52        1.09
  WS02006251           JUNCTION     0.42     1.28     8.95     0  01:52        1.12
  WS02006252           JUNCTION     0.27     1.50     9.74     0  00:00        0.89
  WS02006256           JUNCTION     0.88     2.35     9.28     0  00:00        2.35
  WSF200               JUNCTION     0.14     0.28     5.51     0  02:12        0.28
  YS02001580           JUNCTION     0.12     1.05     9.59     0  01:48        0.77
  YS02001583           JUNCTION     0.15     1.14     9.64     0  01:48        0.82
  YS02001586           JUNCTION     0.24     1.13     9.30     0  01:47        1.13
  YS02001590           JUNCTION     0.35     1.40     9.26     0  01:48        1.39
  YS02001593           JUNCTION     0.28     1.36     9.22     0  01:48        1.28
  YS02001596           JUNCTION     0.39     1.70     9.12     0  01:48        1.65
  YS02001600           JUNCTION     0.48     1.87     9.00     0  01:47        1.86
  YS02001601           JUNCTION     0.66     2.06     8.90     0  01:47        2.06
  YS02001602           JUNCTION     0.56     1.87     8.77     0  01:48        1.87
  YS02001605           JUNCTION     0.52     1.78     8.68     0  01:48        1.77
  YS02001607           JUNCTION     0.48     1.65     8.49     0  01:52        1.65
  YS02001610           JUNCTION     0.52     1.68     8.48     0  01:48        1.68
  YS02001613           JUNCTION     0.48     1.67     8.51     0  01:48        1.65
  YS02001616           JUNCTION     0.42     1.61     8.52     0  01:48        1.61
  YS02001619           JUNCTION     0.39     1.61     8.54     0  01:48        1.58
  YS02001622           JUNCTION     0.38     1.62     8.52     0  01:48        1.55
  YS02001625           JUNCTION     0.62     1.78     8.38     0  01:48        1.78
  YS02001629           JUNCTION     0.51     1.85     8.40     0  01:48        1.85
  YS02001633           JUNCTION     0.58     2.05     8.50     0  01:51        1.96
  YS02001641           JUNCTION     0.54     2.02     8.46     0  01:51        1.93
  YS02001644           JUNCTION     0.52     1.92     8.35     0  01:50        1.92
  YS02001647           JUNCTION     0.30     1.73     8.34     0  01:52        1.67
  YS02001649           JUNCTION     0.33     1.88     8.27     0  01:51        1.81
  YS02001652           JUNCTION     0.22     2.00     8.60     0  01:50        1.63
  YS02001655           JUNCTION     0.15     2.20     9.05     0  01:50        1.37
  YS02001658           JUNCTION     0.11     1.67     8.82     0  01:52        1.11
  YS02001661           JUNCTION     0.14     0.91     8.31     0  01:52        0.86
  YS02001664           JUNCTION     0.06     0.33     8.25     0  01:53        0.32
  YS02001745           JUNCTION     0.06     0.64     8.16     0  01:53        0.59
  YS02001748           JUNCTION     0.09     1.09     8.17     0  01:52        1.08
  YS02001751           JUNCTION     0.11     1.96     8.83     0  01:51        1.25
  YS02001754           JUNCTION     0.17     1.87     8.47     0  01:51        1.49
  YS02001757           JUNCTION     0.34     1.85     8.11     0  01:52        1.81
  YS02001759           JUNCTION     0.28     1.80     8.16     0  01:52        1.77
  YS02001762           JUNCTION     0.27     1.88     8.28     0  01:50        1.75
  YS02001765           JUNCTION     0.25     1.91     8.36     0  01:50        1.72
  YS02001767           JUNCTION     0.24     1.95     8.44     0  01:50        1.71
  YS02001770           JUNCTION     0.26     1.95     8.44     0  01:50        1.73
  YS02001774           JUNCTION     0.31     1.99     8.42     0  01:50        1.80
  YS02001779           JUNCTION     0.15     1.68     8.37     0  01:50        1.53
  YS02001783           JUNCTION     0.30     1.67     7.81     0  01:50        1.20
  YS02001784           JUNCTION     0.31     1.36     7.43     0  01:50        1.10
  YS02001786           JUNCTION     0.26     0.98     7.01     0  01:50        0.86
  YS02001788           JUNCTION     0.19     0.62     6.60     0  01:53        0.61
  YS02001790           JUNCTION     0.22     0.72     6.36     0  01:54        0.70
  YS02001791           JUNCTION     0.14     0.43     5.90     0  01:53        0.43
  YS02001793           JUNCTION     0.08     0.25     5.09     0  01:53        0.24
  YS02001882           JUNCTION     0.37     1.83     8.55     0  01:48        1.61
  YS02001884           JUNCTION     0.45     1.92     8.54     0  01:48        1.70
  YS02001887           JUNCTION     0.53     1.92     8.46     0  01:48        1.79
  YS02001890           JUNCTION     0.55     1.81     8.32     0  01:48        1.81
  YS02001895           JUNCTION     0.34     1.71     8.45     0  01:48        1.56
  YS02001898           JUNCTION     0.35     1.73     8.46     0  01:48        1.56
  YS02001901           JUNCTION     0.45     1.79     8.40     0  01:48        1.68
  YS02001904           JUNCTION     0.43     1.69     8.32     0  01:49        1.64
  YS02001907           JUNCTION     0.73     1.96     8.25     0  01:50        1.96
  YS02001910           JUNCTION     0.54     1.99     8.49     0  01:50        1.82
  YS02001915           JUNCTION     0.37     1.94     8.66     0  01:50        1.67
  YS02001918           JUNCTION     0.21     1.81     8.88     0  01:50        1.39
  YS02001920           JUNCTION     0.29     2.13     9.14     0  01:50        1.50
  YS02001923           JUNCTION     0.16     2.03     9.29     0  01:50        1.31
  YS02001926           JUNCTION     0.19     1.90     9.35     0  01:50        1.18
  YS02001929           JUNCTION     0.11     1.78     9.47     0  01:50        1.00
  YS02006553           JUNCTION     0.73     2.06     8.34     0  01:50        1.97
  YS02006556           JUNCTION     0.71     2.14     8.45     0  01:50        1.93
  YS02006558           JUNCTION     0.75     2.21     8.48     0  01:50        1.98
  YS02006561           JUNCTION     0.19     1.57     8.23     0  01:50        0.93
  YS02163301           JUNCTION     0.53     1.94     8.46     0  01:48        1.89
  YS02163601           JUNCTION     0.60     2.08     8.48     0  01:50        1.99
  YS02164001           JUNCTION     0.53     2.03     8.49     0  01:51        1.91
  CC-1                 OUTFALL      0.00     0.00     0.00     0  00:00        0.00
  CC-2                 OUTFALL      0.00     0.00     0.00     0  00:00        0.00
  JK-1                 OUTFALL      0.00     0.00     0.00     0  00:00        0.00
  JK-2                 OUTFALL      0.00     0.00     0.00     0  00:00        0.00
  WSC                  OUTFALL      0.15     0.29     0.96     0  02:15        0.29
  CC-storage           STORAGE      0.14     0.80     6.30     0  00:00        0.76
  JK-storage           STORAGE      0.02     2.99     3.79     0  00:00        0.68
  
  
  *******************
  Node Inflow Summary
  *******************
  
  -------------------------------------------------------------------------------------------------
                                  Maximum  Maximum                  Lateral       Total        Flow
                                  Lateral    Total  Time of Max      Inflow      Inflow     Balance
                                   Inflow   Inflow   Occurrence      Volume      Volume       Error
  Node                 Type           LPS      LPS  days hr:min    10^6 ltr    10^6 ltr     Percent
  -------------------------------------------------------------------------------------------------
  WS02003060           JUNCTION     16.53   512.26     0  02:12       0.471        3.62       0.065
  WS02003066           JUNCTION      0.00   495.55     0  02:12           0        3.15       0.049
  WS02003067           JUNCTION      0.00   495.45     0  02:11           0        3.16       0.135
  WS02003069           JUNCTION      0.32   512.48     0  02:12     0.00912        3.63       0.120
  WS02003072           JUNCTION      0.00   512.22     0  02:13           0        3.63       0.214
  WS02003073           JUNCTION      1.82   513.86     0  02:14      0.0519        3.67       0.165
  WS02004401           JUNCTION      0.00   497.74     0  02:09           0        3.27       0.327
  WS02004402           JUNCTION      0.00   497.47     0  02:06           0        3.25       0.330
  WS02004403           JUNCTION      0.00   497.23     0  02:09           0        3.24       0.323
  WS02004404           JUNCTION      0.16   497.35     0  02:09     0.00462        3.24       0.268
  WS02004405           JUNCTION      0.04   497.25     0  02:09     0.00109        3.23       0.394
  WS02004406           JUNCTION      0.00   496.96     0  02:09           0        3.22       0.670
  WS02004407           JUNCTION      0.00   496.96     0  02:10           0         3.2       0.039
  WS02004409           JUNCTION      0.00   496.82     0  02:10           0         3.2       0.093
  WS02004410           JUNCTION      0.00   496.35     0  02:10           0        3.19       0.152
  WS02004411           JUNCTION      0.00   496.24     0  02:10           0        3.19       0.187
  WS02004412           JUNCTION      0.00   495.93     0  02:11           0        3.18       0.246
  WS02004413           JUNCTION      0.00   495.83     0  02:11           0        3.17       0.454
  WS02006109           JUNCTION      1.23   501.30     0  01:53      0.0351        3.32       0.322
  WS02006110           JUNCTION      0.00   501.20     0  01:53           0        3.31       0.222
  WS02006111           JUNCTION      0.00   517.24     0  02:00           0         3.3       0.041
  WS02006112           JUNCTION      0.00   501.93     0  01:58           0         3.3       0.634
  WS02006113           JUNCTION      0.00   502.93     0  01:53           0         3.3       0.053
  WS02006115           JUNCTION      0.00   505.02     0  02:03           0        3.28       0.229
  WS02006116           JUNCTION      0.00   498.27     0  02:05           0        3.27       0.101
  WS02006228           JUNCTION      0.00   500.59     0  01:54           0        3.29       0.143
  WS02006229           JUNCTION      0.00   500.07     0  01:53           0        3.29       0.157
  WS02006230           JUNCTION     10.28   518.44     0  01:57       0.293         3.3       0.195
  WS02006231           JUNCTION      0.00   511.25     0  01:52           0        3.01       0.074
  WS02006232           JUNCTION      0.00   510.08     0  01:52           0        3.02       0.238
  WS02006234           JUNCTION      0.00   516.25     0  01:52           0           3      -0.411
  WS02006235           JUNCTION      0.00   520.09     0  01:52           0         3.2       0.409
  WS02006238           JUNCTION      0.00   417.02     0  02:17           0        2.63       0.302
  WS02006239           JUNCTION      0.00   414.42     0  02:20           0        2.47      -0.127
  WS02006240           JUNCTION      0.00   413.83     0  02:18           0        2.43      -0.063
  WS02006242           JUNCTION      0.00   413.78     0  02:18           0        2.43      -0.028
  WS02006243           JUNCTION      0.00   413.65     0  02:18           0        2.42      -0.217
  WS02006245           JUNCTION      0.00   415.26     0  01:48           0        2.44       0.731
  WS02006247           JUNCTION      0.00   422.02     0  01:46           0        2.44      -0.129
  WS02006248           JUNCTION      0.00   420.62     0  01:46           0        2.43      -0.475
  WS02006249           JUNCTION      0.00   492.53     0  02:52           0        2.47       1.337
  WS02006251           JUNCTION      0.08   425.64     0  02:53     0.00219        2.47      -0.002
  WS02006252           JUNCTION      0.00   400.00     0  00:00           0        2.45      -0.908
  WS02006256           JUNCTION      0.00   300.00     0  00:00           0       0.777     -15.195
  WSF200               JUNCTION      0.00   495.52     0  02:12           0        3.15       0.018
  YS02001580           JUNCTION      0.00   170.56     0  01:48           0     0.00457      -0.297
  YS02001583           JUNCTION      0.00   270.32     0  01:48           0      0.0147     -11.444
  YS02001586           JUNCTION    401.73   401.76     0  01:54        1.08         1.1       0.158
  YS02001590           JUNCTION      0.00   317.78     0  01:54           0        1.03      -0.037
  YS02001593           JUNCTION      0.00   317.81     0  01:54           0        1.03       0.021
  YS02001596           JUNCTION      0.00   317.83     0  01:53           0        1.03       0.006
  YS02001600           JUNCTION      0.00   317.84     0  01:54           0        1.03       0.018
  YS02001601           JUNCTION    762.52  1080.08     0  01:52        1.54        2.58       0.039
  YS02001602           JUNCTION      0.00   576.17     0  01:47           0        1.94       0.029
  YS02001605           JUNCTION      0.00   576.38     0  01:47           0        1.89       0.035
  YS02001607           JUNCTION      0.00   576.08     0  01:47           0        1.89       0.102
  YS02001610           JUNCTION      0.00   543.60     0  01:48           0        1.89       0.131
  YS02001613           JUNCTION      0.00   546.59     0  01:48           0        1.75       0.102
  YS02001616           JUNCTION      0.00   543.17     0  01:48           0        1.75       0.021
  YS02001619           JUNCTION    706.64   954.51     0  01:48        1.72        3.47      -0.007
  YS02001622           JUNCTION      0.00   948.13     0  01:48           0        3.47      -0.004
  YS02001625           JUNCTION      0.00   941.20     0  01:48           0        3.47       0.260
  YS02001629           JUNCTION      0.00   930.98     0  01:48           0        3.22       0.005
  YS02001633           JUNCTION    565.14  1415.06     0  01:49        1.12        4.33       0.083
  YS02001641           JUNCTION      0.00  1414.38     0  01:49           0        4.33       0.068
  YS02001644           JUNCTION    507.85  1878.42     0  01:49       0.964        5.29       0.064
  YS02001647           JUNCTION      0.00  1878.17     0  01:49           0        5.28       0.007
  YS02001649           JUNCTION      0.00  2135.56     0  01:49           0        6.15       0.007
  YS02001652           JUNCTION      0.00   596.02     0  01:53           0       0.867      -0.174
  YS02001655           JUNCTION      0.15   596.33     0  01:53     0.00439       0.868       0.068
  YS02001658           JUNCTION      0.00   642.17     0  01:56           0       0.863      -0.012
  YS02001661           JUNCTION      0.00   573.63     0  01:53           0       0.864       0.038
  YS02001664           JUNCTION    491.88   491.88     0  01:51       0.864       0.864      -0.010
  YS02001745           JUNCTION    331.49   331.49     0  01:51       0.534       0.534       0.171
  YS02001748           JUNCTION      0.04   625.10     0  01:54     0.00128       0.536      -0.264
  YS02001751           JUNCTION      0.01   528.34     0  01:55    0.000313       0.543       0.053
  YS02001754           JUNCTION      0.26   414.23     0  01:54     0.00741       0.556      -0.178
  YS02001757           JUNCTION      0.00  3123.81     0  01:53           0        8.58       0.013
  YS02001759           JUNCTION    455.03  1130.40     0  01:50       0.734        1.88      -0.007
  YS02001762           JUNCTION      0.00   670.50     0  01:50           0        1.14       0.006
  YS02001765           JUNCTION      0.00   665.95     0  01:51           0        1.14       0.004
  YS02001767           JUNCTION      0.54   663.15     0  01:50      0.0152        1.14       0.017
  YS02001770           JUNCTION    640.04   656.46     0  01:50        1.13        1.17      -0.024
  YS02001774           JUNCTION      0.00   445.49     0  01:50           0      0.0611       1.878
  YS02001779           JUNCTION      0.01   454.05     0  01:50    0.000142      0.0198      -3.697
  YS02001783           JUNCTION      0.00  1151.46     0  01:50           0        3.24       0.009
  YS02001784           JUNCTION      1.06  1152.54     0  01:50      0.0302        3.27       0.016
  YS02001786           JUNCTION      0.06  1152.46     0  01:51      0.0016        3.27       0.021
  YS02001788           JUNCTION      0.07  1157.83     0  01:50     0.00202        3.27       0.009
  YS02001790           JUNCTION      0.15  1165.25     0  01:52     0.00442        3.27       0.007
  YS02001791           JUNCTION      0.00  1274.80     0  01:53           0        3.27       0.004
  YS02001793           JUNCTION      0.00  1231.63     0  01:53           0        3.27       0.017
  YS02001882           JUNCTION      0.00    97.46     0  01:48           0      0.0125       5.604
  YS02001884           JUNCTION      0.00   145.26     0  01:48           0       0.048       5.599
  YS02001887           JUNCTION    510.90   516.57     0  01:49       0.779       0.812       0.562
  YS02001890           JUNCTION      0.00   526.41     0  01:49           0       0.772       0.682
  YS02001895           JUNCTION      0.00   534.03     0  01:49           0       0.766       0.222
  YS02001898           JUNCTION      0.00   542.02     0  01:49           0       0.764       0.027
  YS02001901           JUNCTION      0.00   555.80     0  01:49           0       0.767       0.449
  YS02001904           JUNCTION      0.00   558.07     0  01:49           0       0.771       0.384
  YS02001907           JUNCTION      0.00  1482.28     0  01:51           0        2.49       0.733
  YS02001910           JUNCTION      0.00   990.61     0  01:51           0        1.72       0.424
  YS02001915           JUNCTION    553.90   990.47     0  01:51        1.08        1.77       0.104
  YS02001918           JUNCTION      0.00   552.84     0  01:49           0       0.731       0.031
  YS02001920           JUNCTION      2.87   495.76     0  01:49      0.0818       0.707       0.128
  YS02001923           JUNCTION      0.04   606.96     0  01:49     0.00107       0.609      -0.098
  YS02001926           JUNCTION      0.05   898.10     0  01:50     0.00149       0.588      -0.194
  YS02001929           JUNCTION    263.11   721.68     0  01:50       0.566       0.571      -0.108
  YS02006553           JUNCTION      0.00   787.99     0  02:03           0        2.15       0.558
  YS02006556           JUNCTION      0.00   787.69     0  02:03           0        2.16       0.384
  YS02006558           JUNCTION    655.01  1170.79     0  01:50        1.14        3.27       0.105
  YS02006561           JUNCTION      0.00  1169.01     0  01:49           0        3.24       0.003
  YS02163301           JUNCTION      0.00   926.46     0  02:06           0        3.22       0.053
  YS02163601           JUNCTION      0.11  1414.96     0  01:49     0.00313        4.33       0.116
  YS02164001           JUNCTION      0.00  1415.21     0  01:49           0        4.33       0.058
  CC-1                 OUTFALL       0.00   683.00     0  00:00           0        4.18       0.000
  CC-2                 OUTFALL       0.00   683.00     0  00:00           0        4.18       0.000
  JK-1                 OUTFALL       0.00  1000.00     0  00:00           0        1.94       0.000
  JK-2                 OUTFALL       0.00  1000.00     0  00:00           0        1.94       0.000
  WSC                  OUTFALL       0.00   513.71     0  02:15           0        3.66       0.000
  CC-storage           STORAGE       0.00  3124.34     0  01:53           0        10.8      -0.400
  JK-storage           STORAGE       0.00  1276.97     0  01:54           0        3.42     -25.966
  
  
  **********************
  Node Surcharge Summary
  **********************
  
  Surcharging occurs when water rises above the top of the highest conduit.
  ---------------------------------------------------------------------
                                               Max. Height   Min. Depth
                                   Hours       Above Crown    Below Rim
  Node                 Type      Surcharged         Meters       Meters
  ---------------------------------------------------------------------
  WS02006109           JUNCTION        1.14          0.113        1.707
  WS02006112           JUNCTION        0.14          0.015        1.665
  WS02006228           JUNCTION        1.13          0.138        2.062
  WS02006229           JUNCTION        1.16          0.161        2.289
  WS02006231           JUNCTION        0.29          0.118        1.412
  WS02006232           JUNCTION        1.23          0.409        1.071
  WS02006234           JUNCTION        0.96          0.558        0.682
  WS02006235           JUNCTION        1.16          0.530        0.760
  WS02006238           JUNCTION        1.19          0.597        0.833
  WS02006239           JUNCTION        1.16          0.597        0.693
  WS02006240           JUNCTION        1.16          0.598        0.792
  WS02006242           JUNCTION        1.25          0.659        0.161
  WS02006243           JUNCTION        1.17          0.568        0.202
  WS02006245           JUNCTION        1.17          0.511        0.339
  WS02006247           JUNCTION        1.19          0.495        0.265
  WS02006248           JUNCTION        1.15          0.380        0.000
  WS02006249           JUNCTION        1.17          0.390        0.000
  WS02006251           JUNCTION        0.45          0.249        0.931
  WS02006252           JUNCTION        1.69          1.100        0.000
  WS02006256           JUNCTION        6.48          2.050        0.000
  YS02001580           JUNCTION        0.38          0.450        0.000
  YS02001583           JUNCTION        0.39          0.500        0.000
  YS02001586           JUNCTION        0.51          0.510        0.000
  YS02001590           JUNCTION        0.58          0.750        0.000
  YS02001593           JUNCTION        0.58          0.736        0.104
  YS02001596           JUNCTION        0.67          0.969        0.101
  YS02001600           JUNCTION        0.81          1.190        0.000
  YS02001601           JUNCTION        1.19          1.440        0.000
  YS02001602           JUNCTION        1.05          1.270        0.000
  YS02001605           JUNCTION        1.00          1.180        0.000
  YS02001607           JUNCTION        0.51          0.646        0.034
  YS02001610           JUNCTION        0.54          0.680        0.000
  YS02001613           JUNCTION        0.50          0.667        0.033
  YS02001616           JUNCTION        0.46          0.610        0.000
  YS02001619           JUNCTION        0.44          0.610        0.000
  YS02001622           JUNCTION        0.43          0.620        0.000
  YS02001625           JUNCTION        0.62          0.780        0.000
  YS02001629           JUNCTION        0.33          0.470        0.000
  YS02001633           JUNCTION        0.63          1.030        0.030
  YS02001641           JUNCTION        0.52          1.020        0.080
  YS02001644           JUNCTION        0.46          0.920        0.000
  YS02001647           JUNCTION        0.24          0.728        0.172
  YS02001649           JUNCTION        0.27          0.882        0.168
  YS02001652           JUNCTION        0.17          0.973        0.157
  YS02001655           JUNCTION        0.10          1.200        0.000
  YS02001658           JUNCTION        0.03          0.675        0.625
  YS02001748           JUNCTION        0.01          0.012        1.178
  YS02001751           JUNCTION        0.05          0.956        0.244
  YS02001754           JUNCTION        0.11          0.815        0.335
  YS02001757           JUNCTION        0.26          0.850        0.360
  YS02001759           JUNCTION        0.22          0.798        0.412
  YS02001762           JUNCTION        0.20          0.883        0.267
  YS02001765           JUNCTION        0.19          0.912        0.188
  YS02001767           JUNCTION        0.18          0.953        0.077
  YS02001770           JUNCTION        0.17          0.920        0.000
  YS02001774           JUNCTION        0.21          0.994        0.056
  YS02001779           JUNCTION        0.13          0.680        0.000
  YS02001783           JUNCTION        0.39          0.871        0.729
  YS02001784           JUNCTION        0.37          0.562        0.928
  YS02001786           JUNCTION        0.27          0.183        1.247
  YS02001882           JUNCTION        0.34          0.830        0.000
  YS02001884           JUNCTION        0.35          0.862        0.008
  YS02001887           JUNCTION        0.38          0.871        0.079
  YS02001890           JUNCTION        0.39          0.760        0.000
  YS02001895           JUNCTION        0.33          0.708        0.042
  YS02001898           JUNCTION        0.33          0.697        0.043
  YS02001901           JUNCTION        0.37          0.795        0.075
  YS02001904           JUNCTION        0.36          0.685        0.165
  YS02001907           JUNCTION        0.56          0.950        0.000
  YS02001910           JUNCTION        0.42          0.986        0.114
  YS02001915           JUNCTION        0.34          0.942        0.058
  YS02001918           JUNCTION        0.26          0.810        0.000
  YS02001920           JUNCTION        0.27          1.129        0.011
  YS02001923           JUNCTION        0.01          0.820        0.000
  YS02001926           JUNCTION        0.01          0.900        0.000
  YS02001929           JUNCTION        0.01          0.780        0.000
  YS02006553           JUNCTION        0.58          1.058        0.132
  YS02006556           JUNCTION        0.49          1.100        0.250
  YS02006558           JUNCTION        0.48          1.109        0.291
  YS02006561           JUNCTION        0.22          0.768        0.382
  YS02163301           JUNCTION        0.61          0.943        0.087
  YS02163601           JUNCTION        0.65          1.080        0.000
  YS02164001           JUNCTION        0.54          1.030        0.070
  
  
  *********************
  Node Flooding Summary
  *********************
  
  Flooding refers to all water that overflows a node, whether it ponds or not.
  --------------------------------------------------------------------------
                                                             Total   Maximum
                                 Maximum   Time of Max       Flood    Ponded
                        Hours       Rate    Occurrence      Volume     Depth
  Node                 Flooded       LPS   days hr:min    10^6 ltr    Meters
  --------------------------------------------------------------------------
  WS02006248              0.01      2.48      0  02:04       0.000     0.000
  WS02006249              0.31     41.98      0  01:52       0.010     0.000
  WS02006252              0.01    250.22      0  01:42       0.002     0.000
  WS02006256              0.75    293.19      0  00:00       0.296     0.000
  YS02001580              0.01    112.91      0  01:48       0.001     0.000
  YS02001583              0.01    213.27      0  01:48       0.000     0.000
  YS02001586              0.26    134.34      0  01:48       0.052     0.000
  YS02001590              0.01      2.90      0  01:48       0.000     0.000
  YS02001600              0.01      2.86      0  01:47       0.000     0.000
  YS02001601              0.44    682.28      0  01:52       0.630     0.000
  YS02001602              0.28     61.87      0  02:00       0.056     0.000
  YS02001605              0.01      2.51      0  01:48       0.000     0.000
  YS02001610              0.24    222.44      0  01:55       0.133     0.000
  YS02001616              0.01     57.83      0  01:48       0.000     0.000
  YS02001619              0.01     75.97      0  01:48       0.000     0.000
  YS02001622              0.01    254.67      0  01:48       0.001     0.000
  YS02001625              0.20    716.59      0  01:53       0.242     0.000
  YS02001629              0.03    333.60      0  01:48       0.003     0.000
  YS02001644              0.01     20.15      0  01:52       0.000     0.000
  YS02001655              0.01    409.65      0  01:50       0.000     0.000
  YS02001770              0.01    217.09      0  01:50       0.000     0.000
  YS02001779              0.01    424.82      0  01:50       0.003     0.000
  YS02001882              0.01     21.95      0  01:48       0.000     0.000
  YS02001890              0.01    132.76      0  01:49       0.001     0.000
  YS02001907              0.20    984.89      0  01:51       0.324     0.000
  YS02001918              0.01    215.87      0  01:50       0.003     0.000
  YS02001923              0.01    285.15      0  01:50       0.001     0.000
  YS02001926              0.01    618.15      0  01:50       0.003     0.000
  YS02001929              0.01    376.57      0  01:50       0.001     0.000
  YS02163601              0.01      6.08      0  01:50       0.000     0.000
  
  
  **********************
  Storage Volume Summary
  **********************
  
  ------------------------------------------------------------------------------------------------
                         Average    Avg   Evap  Exfil     Maximum    Max    Time of Max    Maximum
                          Volume   Pcnt   Pcnt   Pcnt      Volume   Pcnt     Occurrence    Outflow
  Storage Unit           1000 m³   Full   Loss   Loss     1000 m³   Full    days hr:min        LPS
  ------------------------------------------------------------------------------------------------
  CC-storage               0.381    6.0    0.0    0.0       2.229   34.8       0  00:00    1783.53
  JK-storage               0.001    0.3    0.0    0.0       0.150   51.6       0  00:00    2300.00
  
  
  ***********************
  Outfall Loading Summary
  ***********************
  
  -----------------------------------------------------------
                         Flow       Avg       Max       Total
                         Freq      Flow      Flow      Volume
  Outfall Node           Pcnt       LPS       LPS    10^6 ltr
  -----------------------------------------------------------
  CC-1                  42.01    683.00    683.00       4.179
  CC-2                  42.01    683.00    683.00       4.179
  JK-1                  16.04    874.67   1000.00       1.940
  JK-2                  16.04    874.67   1000.00       1.940
  WSC                   99.94    183.90    513.71       3.664
  -----------------------------------------------------------
  System                43.21   3299.23   3879.71      15.902
  
  
  ********************
  Link Flow Summary
  ********************
  
  -----------------------------------------------------------------------------
                                 Maximum  Time of Max   Maximum    Max/    Max/
                                  |Flow|   Occurrence   |Veloc|    Full    Full
  Link                 Type          LPS  days hr:min     m/sec    Flow   Depth
  -----------------------------------------------------------------------------
  1                    CONDUIT    513.71     0  02:15      2.76    0.18    0.29
  WS02003060WS02003069 CONDUIT    512.16     0  02:12      1.61    0.20    0.32
  WS02003066WSF200     CONDUIT    495.52     0  02:12      2.80    0.08    0.21
  WS02003067WS02003066 CONDUIT    495.55     0  02:12      1.15    0.16    0.40
  WS02003069WS02003072 CONDUIT    512.22     0  02:13      1.34    0.25    0.37
  WS02003072WS02003073 CONDUIT    512.04     0  02:14      1.40    1.11    0.36
  WS02004401WS02004402 CONDUIT    497.47     0  02:06      1.22    0.60    0.83
  WS02004402WS02004403 CONDUIT    497.23     0  02:09      1.24    0.71    0.85
  WS02004403WS02004404 CONDUIT    497.18     0  02:09      1.24    0.36    0.90
  WS02004404WS02004405 CONDUIT    497.21     0  02:09      1.45    4.87    0.93
  WS02004405WS02004406 CONDUIT    496.96     0  02:09      1.46    0.98    0.93
  WS02004406WS02004407 CONDUIT    496.96     0  02:10      0.99    0.22    0.61
  WS02004407WS02004409 CONDUIT    496.82     0  02:10      1.59    0.18    0.46
  WS02004409WS02004410 CONDUIT    496.35     0  02:10      1.06    0.64    0.65
  WS02004410WS02004411 CONDUIT    496.24     0  02:10      1.12    0.68    0.66
  WS02004411WS02004412 CONDUIT    495.93     0  02:11      1.22    0.70    0.67
  WS02004412WS02004413 CONDUIT    495.83     0  02:11      1.22    0.33    0.75
  WS02004413WS02003067 CONDUIT    495.45     0  02:11      1.06    0.21    0.57
  WS02006109WS02006110 CONDUIT    501.20     0  01:53      1.00    0.96    0.99
  WS02006110WS02006113 CONDUIT    502.93     0  01:53      1.21    0.46    0.77
  WS02006111WS02006112 CONDUIT    501.93     0  01:58      1.95    0.24    0.67
  WS02006112WS02006115 CONDUIT    505.02     0  02:03      0.82    0.30    0.85
  WS02006113WS02006111 CONDUIT    517.24     0  02:00      2.40    0.62    0.44
  WS02006115WS02006116 CONDUIT    498.27     0  02:05      1.29    0.64    0.73
  WS02006116WS02004401 CONDUIT    497.74     0  02:09      1.21    0.69    0.81
  WS02006228WS02006109 CONDUIT    500.07     0  01:53      1.06    2.18    1.00
  WS02006229WS02006228 CONDUIT    500.59     0  01:54      1.12    1.66    1.00
  WS02006230WS02006229 CONDUIT    500.07     0  01:53      1.30   11.13    1.00
  WS02006231WS02006230 CONDUIT    508.16     0  01:57      1.42    7.71    0.96
  WS02006232WS02006231 CONDUIT    511.25     0  01:52      1.34    1.07    1.00
  WS02006234WS02006232 CONDUIT    510.08     0  01:52      1.39    1.03    1.00
  WS02006235WS02006234 CONDUIT    516.25     0  01:52      1.34    5.45    1.00
  WS02006238WS02006235 CONDUIT    423.37     0  02:22      1.45    0.95    1.00
  WS02006239WS02006238 CONDUIT    417.02     0  02:17      1.11    1.33    1.00
  WS02006240WS02006239 CONDUIT    414.42     0  02:20      1.24    1.30    1.00
  WS02006242WS02006240 CONDUIT    413.83     0  02:18      1.16    1.64    1.00
  WS02006243WS02006242 CONDUIT    413.78     0  02:18      1.38    0.88    1.00
  WS02006245WS02006243 CONDUIT    413.65     0  02:18      1.44    1.22    1.00
  WS02006247WS02006245 CONDUIT    415.26     0  01:48      1.43    3.29    1.00
  WS02006248WS02006247 CONDUIT    422.02     0  01:46      1.42    0.92    1.00
  WS02006249WS02006248 CONDUIT    420.62     0  01:46      1.36    2.30    1.00
  WS02006251WS02006249 CONDUIT    492.53     0  02:52      2.12    1.42    1.00
  WS02006252WS02006251 CONDUIT    405.87     0  04:47     27.21    1.49    1.00
  WS02006256WS02006235 CONDUIT    288.91     0  00:00      4.23    3.06    1.00
  WSF200WS02003060     CONDUIT    495.73     0  02:12      2.02    0.11    0.27
  YS02001580YS02001583 CONDUIT    170.56     0  01:48      0.90    0.66    1.00
  YS02001583YS02001586 CONDUIT    204.57     0  01:48      0.94    0.31    1.00
  YS02001586YS02001590 CONDUIT    317.78     0  01:54      1.28    0.56    1.00
  YS02001590YS02001593 CONDUIT    317.81     0  01:54      1.12    1.99    1.00
  YS02001593YS02001596 CONDUIT    317.83     0  01:53      1.73    0.50    1.00
  YS02001596YS02001600 CONDUIT    317.84     0  01:54      1.19    0.62    1.00
  YS02001600YS02001601 CONDUIT    317.82     0  01:54      1.12    0.55    1.00
  YS02001601YS02001602 CONDUIT    576.17     0  01:47      2.04    2.08    1.00
  YS02001602YS02001605 CONDUIT    576.38     0  01:47      2.04   12.20    1.00
  YS02001605YS02001607 CONDUIT    576.08     0  01:47      2.04    3.16    1.00
  YS02001607YS02001610 CONDUIT    543.60     0  01:48      0.71    0.52    1.00
  YS02001610YS02001613 CONDUIT    546.59     0  01:48      0.70    0.63    1.00
  YS02001613YS02001616 CONDUIT    543.17     0  01:48      0.69    0.47    1.00
  YS02001616YS02001619 CONDUIT    513.03     0  02:13      0.67    0.89    1.00
  YS02001619YS02001622 CONDUIT    948.13     0  01:48      1.27    1.40    1.00
  YS02001622YS02001625 CONDUIT    941.20     0  01:48      1.20    0.50    1.00
  YS02001625YS02001629 CONDUIT    930.98     0  01:48      1.19    0.44    1.00
  YS02001629YS02163301 CONDUIT    926.46     0  02:06      1.18    1.14    1.00
  YS02001633YS02163601 CONDUIT   1414.85     0  01:49      1.80    1.49    1.00
  YS02001641YS02001644 CONDUIT   1413.98     0  01:49      1.80    4.57    1.00
  YS02001644YS02001647 CONDUIT   1878.17     0  01:49      2.40    1.10    1.00
  YS02001647YS02001649 CONDUIT   1854.94     0  01:49      2.39    0.98    1.00
  YS02001649YS02001757 CONDUIT   2134.03     0  01:50      2.72    1.29    1.00
  YS02001652YS02001649 CONDUIT    596.08     0  01:53      0.84    0.30    1.00
  YS02001655YS02001652 CONDUIT    596.02     0  01:53      1.45    0.29    1.00
  YS02001658YS02001655 CONDUIT    596.17     0  01:53      2.05    0.25    1.00
  YS02001661YS02001658 CONDUIT    642.17     0  01:56      2.38    0.25    0.92
  YS02001664YS02001661 CONDUIT    573.63     0  01:53      2.29    0.18    0.59
  YS02001745YS02001748 CONDUIT    625.05     0  01:54      2.27    0.24    0.71
  YS02001748YS02001751 CONDUIT    528.33     0  01:55      1.87    0.27    1.00
  YS02001751YS02001754 CONDUIT    413.97     0  01:54      1.53    0.20    1.00
  YS02001754YS02001757 CONDUIT    414.63     0  01:54      0.53    0.17    1.00
  YS02001757CaochengTiaoxuchi CONDUIT   3124.34     0  01:53      6.97    1.35    0.70
  YS02001759YS02001757 CONDUIT   1135.36     0  01:50      1.45    0.81    1.00
  YS02001762YS02001759 CONDUIT    675.78     0  01:50      0.86    0.78    1.00
  YS02001765YS02001762 CONDUIT    670.50     0  01:50      0.85    0.63    1.00
  YS02001767YS02001765 CONDUIT    665.95     0  01:51      0.85    0.84    1.00
  YS02001770YS02001767 CONDUIT    662.62     0  01:50      0.84    2.62    1.00
  YS02001774YS02001770 CONDUIT    445.49     0  01:50      0.57    0.28    1.00
  YS02001779YS02001774 CONDUIT    454.05     0  01:50      0.59    0.23    1.00
  YS02001783YS02001784 CONDUIT   1151.48     0  01:50      2.29    1.59    1.00
  YS02001784YS02001785 CONDUIT   1152.40     0  01:51      2.29    2.68    1.00
  YS02001786YS02001788 CONDUIT   1157.76     0  01:50      2.50    2.23    0.89
  YS02001788YS02001790 CONDUIT   1165.09     0  01:52      2.71    0.86    0.83
  YS02001790YS02001791 CONDUIT   1274.80     0  01:53      3.42    1.39    0.70
  YS02001791YS02001793 CONDUIT   1231.63     0  01:53      6.35    0.53    0.43
  YS02001793JiankangQianchi CONDUIT   1276.97     0  01:54     24.63    0.10    0.50
  YS02001882YS02001884 CONDUIT     97.46     0  01:48      0.12    0.11    1.00
  YS02001884YS02001887 CONDUIT    145.26     0  01:48      0.18    0.19    1.00
  YS02001887YS02001890 CONDUIT    526.41     0  01:49      0.67    0.90    1.00
  YS02001890YS02001895 CONDUIT    534.03     0  01:49      0.68    0.25    1.00
  YS02001895YS02001898 CONDUIT    542.02     0  01:49      0.69    0.94    1.00
  YS02001898YS02001901 CONDUIT    555.80     0  01:49      0.71    0.36    1.00
  YS02001901YS02001904 CONDUIT    558.07     0  01:49      0.71    0.87    1.00
  YS02001904YS02001907 CONDUIT    561.43     0  01:49      0.71    0.20    1.00
  YS02001907YS02006553 CONDUIT    787.99     0  02:03      0.88    0.93    1.00
  YS02001910YS02001907 CONDUIT    990.54     0  01:51      1.26    0.56    1.00
  YS02001915YS02001910 CONDUIT    990.61     0  01:51      1.26    0.49    1.00
  YS02001918YS02001915 CONDUIT    552.84     0  01:49      0.76    0.30    1.00
  YS02001920YS02001918 CONDUIT    492.89     0  01:49      0.64    0.48    1.00
  YS02001923YS02001920 CONDUIT    499.23     0  01:49      0.75    0.22    1.00
  YS02001926YS02001923 CONDUIT    693.28     0  01:50      1.13    0.99    1.00
  YS02001929YS02001926 CONDUIT    481.64     0  01:50      1.17    0.23    1.00
  YS02006553YS02006556 CONDUIT    787.69     0  02:03      1.00    0.67    1.00
  YS02006556YS02006558 CONDUIT    788.02     0  02:03      1.00    0.62    1.00
  YS02006558YS02006561 CONDUIT   1169.01     0  01:49      4.13    2.58    1.00
  YS02006561YS02001783 CONDUIT   1151.46     0  01:50      2.29    0.60    1.00
  YS02163301YS02001633 CONDUIT    926.82     0  02:05      1.18    0.87    1.00
  YS02163601YS02164001 CONDUIT   1415.21     0  01:49      1.80    1.25    1.00
  YS02164001YS02001641 CONDUIT   1414.38     0  01:49      1.80    1.93    1.00
  CC-R1                PUMP       683.00     0  00:00              1.00
  CC-R2                PUMP       683.00     0  00:00              1.00
  CC-S1                PUMP       200.00     0  00:00              1.00
  CC-S2                PUMP       200.00     0  00:00              1.00
  JK-R1                PUMP      1000.00     0  00:00              1.00
  JK-R2                PUMP      1000.00     0  00:00              1.00
  JK-S                 PUMP       300.00     0  00:00              1.00
  
  
  ***************************
  Flow Classification Summary
  ***************************
  
  -------------------------------------------------------------------------------------
                      Adjusted    ---------- Fraction of Time in Flow Class ---------- 
                       /Actual         Up    Down  Sub   Sup   Up    Down  Norm  Inlet 
  Conduit               Length    Dry  Dry   Dry   Crit  Crit  Crit  Crit  Ltd   Ctrl  
  -------------------------------------------------------------------------------------
  1                       1.00   0.00  0.00  0.00  0.00  1.00  0.00  0.00  0.27  0.00
  WS02003060WS02003069    1.00   0.00  0.00  0.00  0.98  0.02  0.00  0.00  0.83  0.00
  WS02003066WSF200        1.00   0.05  0.00  0.00  0.00  0.95  0.00  0.00  0.92  0.00
  WS02003067WS02003066    1.00   0.05  0.00  0.00  0.95  0.00  0.00  0.00  0.00  0.00
  WS02003069WS02003072    1.00   0.00  0.00  0.00  0.99  0.01  0.00  0.00  0.84  0.00
  WS02003072WS02003073    1.00   0.00  0.00  0.00  0.00  0.00  0.00  1.00  0.00  0.00
  WS02004401WS02004402    1.00   0.02  0.00  0.00  0.98  0.00  0.00  0.00  0.00  0.00
  WS02004402WS02004403    1.00   0.02  0.00  0.00  0.98  0.00  0.00  0.00  0.00  0.00
  WS02004403WS02004404    1.00   0.00  0.03  0.00  0.97  0.00  0.00  0.00  0.00  0.00
  WS02004404WS02004405    1.00   0.00  0.00  0.00  1.00  0.00  0.00  0.00  0.00  0.00
  WS02004405WS02004406    1.00   0.00  0.00  0.00  1.00  0.00  0.00  0.00  0.00  0.00
  WS02004406WS02004407    1.00   0.00  0.03  0.00  0.97  0.00  0.00  0.00  0.00  0.00
  WS02004407WS02004409    1.00   0.03  0.00  0.00  0.96  0.01  0.00  0.00  0.96  0.00
  WS02004409WS02004410    1.00   0.03  0.00  0.00  0.96  0.00  0.00  0.00  0.00  0.00
  WS02004410WS02004411    1.00   0.04  0.00  0.00  0.96  0.00  0.00  0.00  0.00  0.00
  WS02004411WS02004412    1.00   0.04  0.00  0.00  0.96  0.00  0.00  0.00  0.00  0.00
  WS02004412WS02004413    1.00   0.04  0.00  0.00  0.96  0.00  0.00  0.00  0.00  0.00
  WS02004413WS02003067    1.00   0.04  0.01  0.00  0.00  0.00  0.95  0.00  0.00  0.00
  WS02006109WS02006110    1.00   0.00  0.01  0.00  0.98  0.00  0.01  0.00  0.00  0.00
  WS02006110WS02006113    1.00   0.01  0.01  0.00  0.98  0.00  0.00  0.00  0.00  0.00
  WS02006111WS02006112    1.00   0.02  0.00  0.00  0.98  0.00  0.00  0.00  0.98  0.00
  WS02006112WS02006115    1.00   0.02  0.00  0.00  0.97  0.00  0.00  0.00  0.00  0.00
  WS02006113WS02006111    1.00   0.02  0.00  0.00  0.00  0.98  0.00  0.00  0.09  0.00
  WS02006115WS02006116    1.00   0.02  0.00  0.00  0.97  0.00  0.00  0.01  0.00  0.00
  WS02006116WS02004401    1.00   0.02  0.00  0.00  0.98  0.00  0.00  0.00  0.00  0.00
  WS02006228WS02006109    1.00   0.00  0.00  0.00  1.00  0.00  0.00  0.00  0.00  0.00
  WS02006229WS02006228    1.00   0.00  0.00  0.00  0.99  0.00  0.00  0.01  0.00  0.00
  WS02006230WS02006229    1.00   0.00  0.00  0.00  0.99  0.00  0.00  0.01  0.03  0.00
  WS02006231WS02006230    1.00   0.00  0.00  0.00  0.16  0.00  0.83  0.00  0.00  0.00
  WS02006232WS02006231    1.00   0.00  0.00  0.00  0.99  0.00  0.00  0.00  0.00  0.00
  WS02006234WS02006232    1.00   0.00  0.00  0.00  1.00  0.00  0.00  0.00  0.02  0.00
  WS02006235WS02006234    1.00   0.00  0.00  0.00  0.92  0.00  0.08  0.00  0.00  0.00
  WS02006238WS02006235    1.00   0.00  0.00  0.00  1.00  0.00  0.00  0.00  0.00  0.00
  WS02006239WS02006238    1.00   0.00  0.00  0.00  1.00  0.00  0.00  0.00  0.07  0.00
  WS02006240WS02006239    1.00   0.00  0.00  0.00  0.90  0.00  0.00  0.10  0.32  0.00
  WS02006242WS02006240    1.00   0.00  0.00  0.00  0.93  0.00  0.07  0.00  0.00  0.00
  WS02006243WS02006242    1.00   0.00  0.00  0.00  0.98  0.00  0.00  0.02  0.68  0.00
  WS02006245WS02006243    1.00   0.00  0.00  0.00  0.67  0.00  0.00  0.33  0.01  0.00
  WS02006247WS02006245    1.00   0.00  0.00  0.00  0.96  0.00  0.00  0.04  0.00  0.00
  WS02006248WS02006247    1.00   0.00  0.00  0.00  0.98  0.00  0.00  0.02  0.44  0.00
  WS02006249WS02006248    1.00   0.00  0.00  0.00  0.38  0.00  0.62  0.00  0.00  0.00
  WS02006251WS02006249    1.00   0.00  0.00  0.00  0.99  0.01  0.00  0.00  0.66  0.00
  WS02006252WS02006251    1.00   0.00  0.74  0.00  0.06  0.00  0.20  0.00  0.00  0.00
  WS02006256WS02006235    1.00   0.00  0.00  0.00  0.95  0.05  0.00  0.00  0.01  0.00
  WSF200WS02003060        1.00   0.00  0.05  0.00  0.41  0.54  0.00  0.00  0.77  0.00
  YS02001580YS02001583    1.00   0.23  0.61  0.00  0.17  0.00  0.00  0.00  0.70  0.00
  YS02001583YS02001586    1.00   0.43  0.34  0.00  0.22  0.00  0.00  0.00  0.70  0.00
  YS02001586YS02001590    1.00   0.13  0.00  0.00  0.39  0.04  0.00  0.43  0.36  0.00
  YS02001590YS02001593    1.00   0.13  0.01  0.00  0.09  0.00  0.78  0.00  0.00  0.00
  YS02001593YS02001596    1.00   0.14  0.00  0.00  0.10  0.01  0.00  0.75  0.02  0.00
  YS02001596YS02001600    1.00   0.14  0.00  0.00  0.18  0.01  0.00  0.67  0.06  0.00
  YS02001600YS02001601    1.00   0.13  0.01  0.00  0.86  0.00  0.00  0.00  0.62  0.00
  YS02001601YS02001602    1.00   0.13  0.01  0.00  0.86  0.00  0.00  0.00  0.00  0.00
  YS02001602YS02001605    1.00   0.14  0.00  0.00  0.86  0.00  0.00  0.00  0.00  0.00
  YS02001605YS02001607    1.00   0.14  0.00  0.00  0.86  0.00  0.00  0.00  0.00  0.00
  YS02001607YS02001610    1.00   0.13  0.01  0.00  0.86  0.00  0.00  0.00  0.02  0.00
  YS02001610YS02001613    1.00   0.13  0.00  0.00  0.87  0.00  0.00  0.00  0.01  0.00
  YS02001613YS02001616    1.00   0.13  0.00  0.00  0.87  0.00  0.00  0.00  0.01  0.00
  YS02001616YS02001619    1.00   0.13  0.00  0.00  0.87  0.00  0.00  0.00  0.00  0.00
  YS02001619YS02001622    1.00   0.13  0.00  0.00  0.87  0.00  0.00  0.00  0.29  0.00
  YS02001622YS02001625    1.00   0.13  0.00  0.00  0.87  0.00  0.00  0.00  0.05  0.00
  YS02001625YS02001629    1.00   0.13  0.06  0.00  0.13  0.00  0.69  0.00  0.00  0.00
  YS02001629YS02163301    1.00   0.16  0.01  0.00  0.83  0.00  0.00  0.00  0.00  0.00
  YS02001633YS02163601    1.00   0.00  0.01  0.00  0.99  0.00  0.00  0.00  0.15  0.00
  YS02001641YS02001644    1.00   0.00  0.01  0.00  0.99  0.00  0.00  0.00  0.00  0.00
  YS02001644YS02001647    1.00   0.00  0.18  0.00  0.82  0.00  0.00  0.00  0.00  0.00
  YS02001647YS02001649    1.00   0.00  0.18  0.00  0.47  0.35  0.00  0.00  0.57  0.00
  YS02001649YS02001757    1.00   0.00  0.00  0.00  0.86  0.14  0.00  0.00  0.75  0.00
  YS02001652YS02001649    1.00   0.00  0.00  0.00  0.96  0.04  0.00  0.00  0.76  0.00
  YS02001655YS02001652    1.00   0.00  0.00  0.00  0.15  0.02  0.00  0.83  0.10  0.00
  YS02001658YS02001655    1.00   0.00  0.15  0.00  0.58  0.27  0.00  0.00  0.75  0.00
  YS02001661YS02001658    1.00   0.15  0.00  0.00  0.43  0.42  0.00  0.00  0.75  0.00
  YS02001664YS02001661    1.00   0.13  0.00  0.00  0.76  0.12  0.00  0.00  0.86  0.00
  YS02001745YS02001748    1.00   0.00  0.00  0.00  0.02  0.01  0.00  0.97  0.02  0.00
  YS02001748YS02001751    1.00   0.00  0.00  0.00  0.75  0.25  0.00  0.00  0.84  0.00
  YS02001751YS02001754    1.00   0.00  0.00  0.00  0.08  0.01  0.00  0.91  0.04  0.00
  YS02001754YS02001757    1.00   0.00  0.00  0.00  1.00  0.00  0.00  0.00  0.89  0.00
  YS02001757CaochengTiaoxuchi    1.00   0.00  0.00  0.00  0.04  0.96  0.00  0.00  0.10  0.00
  YS02001759YS02001757    1.00   0.00  0.00  0.00  1.00  0.00  0.00  0.00  0.68  0.00
  YS02001762YS02001759    1.00   0.00  0.00  0.00  1.00  0.00  0.00  0.00  0.06  0.00
  YS02001765YS02001762    1.00   0.00  0.00  0.00  1.00  0.00  0.00  0.00  0.75  0.00
  YS02001767YS02001765    1.00   0.00  0.00  0.00  1.00  0.00  0.00  0.00  0.00  0.00
  YS02001770YS02001767    1.00   0.00  0.00  0.00  1.00  0.00  0.00  0.00  0.00  0.00
  YS02001774YS02001770    1.00   0.00  0.14  0.00  0.69  0.00  0.17  0.00  0.04  0.00
  YS02001779YS02001774    1.00   0.00  0.00  0.00  1.00  0.00  0.00  0.00  0.81  0.00
  YS02001783YS02001784    1.00   0.00  0.19  0.00  0.81  0.00  0.00  0.00  0.56  0.00
  YS02001784YS02001785    1.00   0.00  0.00  0.00  1.00  0.00  0.00  0.00  0.18  0.00
  YS02001786YS02001788    1.00   0.00  0.00  0.00  0.79  0.21  0.00  0.00  0.00  0.00
  YS02001788YS02001790    1.00   0.00  0.00  0.00  0.21  0.79  0.00  0.00  0.84  0.00
  YS02001790YS02001791    1.00   0.00  0.00  0.00  0.01  0.99  0.00  0.00  0.16  0.00
  YS02001791YS02001793    1.00   0.00  0.00  0.00  0.00  1.00  0.00  0.00  0.01  0.00
  YS02001793JiankangQianchi    1.00   0.00  0.00  0.00  0.00  1.00  0.00  0.00  0.14  0.00
  YS02001882YS02001884    1.00   0.16  0.01  0.00  0.83  0.00  0.00  0.00  0.00  0.00
  YS02001884YS02001887    1.00   0.06  0.05  0.00  0.89  0.00  0.00  0.00  0.00  0.00
  YS02001887YS02001890    1.00   0.00  0.00  0.00  0.97  0.00  0.03  0.00  0.00  0.00
  YS02001890YS02001895    1.00   0.00  0.17  0.00  0.83  0.00  0.00  0.00  0.00  0.00
  YS02001895YS02001898    1.00   0.17  0.00  0.00  0.81  0.00  0.02  0.00  0.00  0.00
  YS02001898YS02001901    1.00   0.18  0.00  0.00  0.82  0.00  0.00  0.00  0.01  0.00
  YS02001901YS02001904    1.00   0.17  0.00  0.00  0.83  0.00  0.00  0.00  0.00  0.00
  YS02001904YS02001907    1.00   0.00  0.17  0.00  0.83  0.00  0.00  0.00  0.00  0.00
  YS02001907YS02006553    1.00   0.00  0.02  0.00  0.98  0.00  0.00  0.00  0.00  0.00
  YS02001910YS02001907    1.00   0.00  0.00  0.00  0.97  0.00  0.00  0.03  0.12  0.00
  YS02001915YS02001910    1.00   0.00  0.00  0.00  0.96  0.04  0.00  0.00  0.17  0.00
  YS02001918YS02001915    1.00   0.00  0.01  0.00  0.98  0.02  0.00  0.00  0.77  0.00
  YS02001920YS02001918    1.00   0.00  0.01  0.00  0.99  0.00  0.00  0.00  0.00  0.00
  YS02001923YS02001920    1.00   0.00  0.00  0.00  1.00  0.00  0.00  0.00  0.94  0.00
  YS02001926YS02001923    1.00   0.00  0.07  0.00  0.04  0.00  0.88  0.00  0.00  0.00
  YS02001929YS02001926    1.00   0.00  0.13  0.00  0.87  0.00  0.00  0.00  0.84  0.00
  YS02006553YS02006556    1.00   0.01  0.00  0.00  0.99  0.00  0.00  0.00  0.03  0.00
  YS02006556YS02006558    1.00   0.00  0.00  0.00  1.00  0.00  0.00  0.00  0.00  0.00
  YS02006558YS02006561    1.00   0.19  0.00  0.00  0.04  0.77  0.00  0.00  0.20  0.00
  YS02006561YS02001783    1.00   0.19  0.00  0.00  0.07  0.74  0.00  0.00  0.70  0.00
  YS02163301YS02001633    1.00   0.00  0.16  0.00  0.84  0.00  0.00  0.00  0.00  0.00
  YS02163601YS02164001    1.00   0.00  0.08  0.00  0.92  0.00  0.00  0.00  0.00  0.00
  YS02164001YS02001641    1.00   0.01  0.08  0.00  0.92  0.00  0.00  0.00  0.06  0.00
  
  
  *************************
  Conduit Surcharge Summary
  *************************
  
  ----------------------------------------------------------------------------
                                                           Hours        Hours 
                         --------- Hours Full --------   Above Full   Capacity
  Conduit                Both Ends  Upstream  Dnstream   Normal Flow   Limited
  ----------------------------------------------------------------------------
  WS02003072WS02003073        0.01      0.01      0.01      0.47         0.01
  WS02004404WS02004405        0.01      0.01      0.01      2.05         0.01
  WS02006109WS02006110        0.01      0.01      1.21      0.01         0.01
  WS02006110WS02006113        0.01      0.01      1.19      0.01         0.01
  WS02006111WS02006112        0.01      0.01      1.29      0.01         0.01
  WS02006112WS02006115        0.01      0.01      0.14      0.01         0.01
  WS02006228WS02006109        1.14      1.22      1.14      1.53         1.14
  WS02006229WS02006228        1.13      1.16      1.13      1.40         1.13
  WS02006230WS02006229        1.28      1.34      1.28      3.12         1.28
  WS02006231WS02006230        0.01      0.01      0.32      2.38         0.01
  WS02006232WS02006231        0.28      0.28      1.23      0.29         0.01
  WS02006234WS02006232        1.10      1.10      1.23      0.01         0.21
  WS02006235WS02006234        0.96      0.96      1.16      2.05         0.20
  WS02006238WS02006235        1.17      1.17      1.25      0.01         0.02
  WS02006239WS02006238        1.19      1.23      1.19      1.33         0.86
  WS02006240WS02006239        1.16      1.18      1.16      1.33         0.92
  WS02006242WS02006240        1.16      1.16      1.29      1.43         0.01
  WS02006243WS02006242        1.18      1.18      1.25      0.01         0.03
  WS02006245WS02006243        1.17      1.18      1.17      1.37         1.06
  WS02006247WS02006245        1.17      1.20      1.17      1.67         1.17
  WS02006248WS02006247        1.17      1.17      1.19      0.01         0.02
  WS02006249WS02006248        1.15      1.15      1.17      1.53         0.01
  WS02006251WS02006249        1.17      1.19      1.17      1.43         1.12
  WS02006252WS02006251        1.69      1.69      1.69      1.70         0.01
  WS02006256WS02006235        1.46      2.12      5.25      0.73         0.16
  YS02001580YS02001583        0.38      0.38      0.43      0.01         0.01
  YS02001583YS02001586        0.39      0.39      0.51      0.01         0.01
  YS02001586YS02001590        0.52      0.52      0.58      0.01         0.01
  YS02001590YS02001593        0.58      0.58      0.59      0.63         0.01
  YS02001593YS02001596        0.59      0.59      0.67      0.01         0.01
  YS02001596YS02001600        0.71      0.71      0.81      0.01         0.01
  YS02001600YS02001601        0.87      0.87      1.19      0.01         0.01
  YS02001601YS02001602        1.05      1.05      1.25      0.83         0.01
  YS02001602YS02001605        1.00      1.00      1.05      2.01         0.01
  YS02001605YS02001607        0.95      1.00      0.95      1.13         0.95
  YS02001607YS02001610        0.51      0.51      0.54      0.01         0.01
  YS02001610YS02001613        0.50      0.50      0.54      0.01         0.01
  YS02001613YS02001616        0.46      0.46      0.50      0.01         0.01
  YS02001616YS02001619        0.44      0.44      0.46      0.01         0.01
  YS02001619YS02001622        0.43      0.44      0.43      0.62         0.42
  YS02001622YS02001625        0.43      0.43      0.62      0.01         0.01
  YS02001625YS02001629        0.33      0.33      0.62      0.01         0.01
  YS02001629YS02163301        0.60      0.60      0.61      0.31         0.29
  YS02001633YS02163601        0.63      0.63      0.65      0.44         0.44
  YS02001641YS02001644        0.46      0.52      0.46      1.31         0.46
  YS02001644YS02001647        0.24      0.24      0.46      0.04         0.01
  YS02001647YS02001649        0.24      0.24      0.27      0.01         0.01
  YS02001649YS02001757        0.26      0.27      0.26      0.34         0.23
  YS02001652YS02001649        0.19      0.19      0.27      0.01         0.01
  YS02001655YS02001652        0.10      0.10      0.17      0.01         0.01
  YS02001658YS02001655        0.03      0.03      0.10      0.01         0.01
  YS02001661YS02001658        0.01      0.01      0.03      0.01         0.01
  YS02001745YS02001748        0.01      0.01      0.01      0.01         0.01
  YS02001748YS02001751        0.01      0.01      0.05      0.01         0.01
  YS02001751YS02001754        0.05      0.05      0.11      0.01         0.01
  YS02001754YS02001757        0.13      0.13      0.26      0.01         0.01
  YS02001757CaochengTiaoxuchi        0.01      0.26      0.01      0.34         0.01
  YS02001759YS02001757        0.22      0.22      0.26      0.01         0.01
  YS02001762YS02001759        0.20      0.20      0.22      0.01         0.01
  YS02001765YS02001762        0.19      0.19      0.20      0.01         0.01
  YS02001767YS02001765        0.18      0.18      0.19      0.01         0.01
  YS02001770YS02001767        0.18      0.18      0.18      0.44         0.17
  YS02001774YS02001770        0.17      0.17      0.21      0.01         0.01
  YS02001779YS02001774        0.13      0.13      0.21      0.01         0.01
  YS02001783YS02001784        0.37      0.39      0.37      0.51         0.37
  YS02001784YS02001785        0.27      0.37      0.27      0.71         0.27
  YS02001786YS02001788        0.01      0.27      0.01      0.59         0.01
  YS02001790YS02001791        0.01      0.01      0.01      0.36         0.01
  YS02001882YS02001884        0.34      0.34      0.35      0.01         0.01
  YS02001884YS02001887        0.37      0.37      0.38      0.01         0.01
  YS02001887YS02001890        0.39      0.39      0.41      0.01         0.01
  YS02001890YS02001895        0.33      0.33      0.42      0.01         0.01
  YS02001895YS02001898        0.33      0.33      0.33      0.01         0.01
  YS02001898YS02001901        0.34      0.34      0.37      0.01         0.01
  YS02001901YS02001904        0.36      0.36      0.37      0.01         0.01
  YS02001904YS02001907        0.36      0.36      0.58      0.01         0.01
  YS02001907YS02006553        0.72      0.72      0.77      0.01         0.01
  YS02001910YS02001907        0.42      0.42      0.56      0.01         0.01
  YS02001915YS02001910        0.34      0.34      0.42      0.01         0.01
  YS02001918YS02001915        0.26      0.26      0.34      0.01         0.01
  YS02001920YS02001918        0.26      0.26      0.27      0.01         0.01
  YS02001923YS02001920        0.21      0.21      0.27      0.01         0.01
  YS02001926YS02001923        0.01      0.01      0.01      0.01         0.01
  YS02001929YS02001926        0.01      0.01      0.01      0.01         0.01
  YS02006553YS02006556        0.49      0.49      0.58      0.01         0.01
  YS02006556YS02006558        0.53      0.53      0.59      0.01         0.01
  YS02006558YS02006561        0.30      0.48      0.30      0.67         0.30
  YS02006561YS02001783        0.22      0.22      0.39      0.01         0.01
  YS02163301YS02001633        0.61      0.61      0.65      0.01         0.01
  YS02163601YS02164001        0.54      0.54      0.65      0.25         0.01
  YS02164001YS02001641        0.52      0.54      0.52      0.68         0.48
  
  
  ***************
  Pumping Summary
  ***************
  
  ---------------------------------------------------------------------------------------------------------
                                                  Min       Avg       Max     Total     Power    % Time Off
                        Percent   Number of      Flow      Flow      Flow    Volume     Usage    Pump Curve
  Pump                 Utilized   Start-Ups       LPS       LPS       LPS  10^6 ltr     Kw-hr    Low   High
  ---------------------------------------------------------------------------------------------------------
  CC-R1                   21.46          40      0.00    683.00    683.00     4.177     65.87    0.0  100.0
  CC-R2                   21.46          40      0.00    683.00    683.00     4.177     65.87    0.0  100.0
  CC-S1                   21.46          40      0.00    200.00    200.00     1.223     10.18    0.0   49.3
  CC-S2                   21.46          40      0.00    200.00    200.00     1.223     10.18    0.0   49.3
  JK-R1                    9.53        1048      0.00    874.67   1000.00     1.965      4.62    0.0    0.0
  JK-R2                    9.53        1048      0.00    874.67   1000.00     1.965      4.62    0.0    0.0
  JK-S                     9.53        1048      0.00    293.66    300.00     0.762     17.49    0.0    0.0
  

  Analysis begun on:  Wed Feb 26 11:07:43 2025
  Analysis ended on:  Wed Feb 26 11:07:45 2025
  Total elapsed time: 00:00:02