
  EPA STORM WATER MANAGEMENT MODEL - VERSION 5.2 (Build 5.2.4)
  PYSWMM TOOLKIT API - VERSION v1.0 (2023-11-27)
  ------------------------------------------------------------

  WARNING 04: minimum elevation drop used for Conduit WS02004404WS02004405
  WARNING 03: negative offset ignored for Link YS02001904YS02001907
  
  ****************
  Analysis Options
  ****************
  Flow Units ............... LPS
  Process Models:
    Rainfall/Runoff ........ YES
    RDII ................... NO
    Snowmelt ............... NO
    Groundwater ............ NO
    Flow Routing ........... YES
    Ponding Allowed ........ NO
    Water Quality .......... NO
  Infiltration Method ...... HORTON
  Flow Routing Method ...... DYNWAVE
  Surcharge Method ......... EXTRAN
  Starting Date ............ 08/28/2015 08:00:00
  Ending Date .............. 08/28/2015 16:00:00
  Antecedent Dry Days ...... 8.0
  Report Time Step ......... 00:01:00
  Wet Time Step ............ 00:01:00
  Dry Time Step ............ 00:01:00
  Routing Time Step ........ 30.00 sec
  Variable Time Step ....... YES
  Maximum Trials ........... 8
  Number of Threads ........ 4
  Head Tolerance ........... 0.001500 m
  
  
  **************************        Volume         Depth
  Runoff Quantity Continuity     hectare-m            mm
  **************************     ---------       -------
  Total Precipitation ......         3.445       103.865
  Evaporation Loss .........         0.000         0.000
  Infiltration Loss ........         0.104         3.128
  Surface Runoff ...........         3.309        99.767
  Final Storage ............         0.033         0.998
  Continuity Error (%) .....        -0.027
  
  
  **************************        Volume        Volume
  Flow Routing Continuity        hectare-m      10^6 ltr
  **************************     ---------     ---------
  Dry Weather Inflow .......         0.025         0.248
  Wet Weather Inflow .......         3.309        33.087
  Groundwater Inflow .......         0.000         0.000
  RDII Inflow ..............         0.000         0.000
  External Inflow ..........         0.083         0.825
  External Outflow .........         2.421        24.208
  Flooding Loss ............         1.336        13.361
  Evaporation Loss .........         0.000         0.000
  Exfiltration Loss ........         0.000         0.000
  Initial Stored Volume ....         0.243         2.431
  Final Stored Volume ......         0.040         0.400
  Continuity Error (%) .....        -3.767
  
  
  *************************
  Highest Continuity Errors
  *************************
  Node JK-storage (-22.46%)
  Node WS02006256 (-11.39%)
  Node YS02001583 (-8.95%)
  Node YS02001884 (5.19%)
  
  
  ***************************
  Time-Step Critical Elements
  ***************************
  Link YS02001793JiankangQianchi (42.93%)
  Link WS02006238WS02006235 (26.65%)
  Link WS02004404WS02004405 (5.48%)
  Link WS02006235WS02006234 (5.11%)
  Link WS02003066WSF200 (4.98%)
  
  
  ********************************
  Highest Flow Instability Indexes
  ********************************
  Link WS02006256WS02006235 (59)
  Link WS02006252WS02006251 (53)
  Link WS02006238WS02006235 (44)
  Link WS02006235WS02006234 (43)
  Link WS02006229WS02006228 (40)
  
  
  *********************************
  Most Frequent Nonconverging Nodes
  *********************************
  Node CC-1 (55.53%)
  Node CC-2 (55.53%)
  Node JK-1 (55.53%)
  Node JK-2 (55.53%)
  Node WSC (55.53%)
  
  
  *************************
  Routing Time Step Summary
  *************************
  Minimum Time Step           :     0.01 sec
  Average Time Step           :     2.48 sec
  Maximum Time Step           :     6.43 sec
  % of Time in Steady State   :     0.00
  Average Iterations per Step :     5.85
  % of Steps Not Converging   :    55.53
  Time Step Frequencies       :
     30.000 - 13.228 sec      :     0.00 %
     13.228 -  5.833 sec      :     5.59 %
      5.833 -  2.572 sec      :    31.97 %
      2.572 -  1.134 sec      :    39.43 %
      1.134 -  0.500 sec      :    23.01 %
  
  
  ***************************
  Subcatchment Runoff Summary
  ***************************
  
  ------------------------------------------------------------------------------------------------------------------------------
                            Total      Total      Total      Total     Imperv       Perv      Total       Total     Peak  Runoff
                           Precip      Runon       Evap      Infil     Runoff     Runoff     Runoff      Runoff   Runoff   Coeff
  Subcatchment                 mm         mm         mm         mm         mm         mm         mm    10^6 ltr      LPS
  ------------------------------------------------------------------------------------------------------------------------------
  sub60                    103.87       0.00       0.00       1.89      90.21      10.58     100.79        1.32   859.68   0.970
  sub61                    103.87       0.00       0.00       2.74      85.09      14.92     100.02        1.84  1191.96   0.963
  sub62                    103.87       0.00       0.00       1.26      94.28       7.05     101.34        2.78  1677.84   0.976
  sub63                    103.87       0.00       0.00       5.03      72.79      25.10      97.88        2.22  1329.16   0.942
  sub64                    103.87       0.00       0.00       2.55      87.09      13.04     100.13        2.41  1359.78   0.964
  sub65                    103.87       0.00       0.00       2.21      89.12      11.30     100.42        2.76  1523.11   0.967
  sub66                    103.87       0.00       0.00       6.18      72.67      23.95      96.62        4.51  1993.77   0.930
  sub67                    103.87       0.00       0.00       1.21      94.33       7.10     101.43        1.89  1301.16   0.977
  sub68                    103.87       0.00       0.00       2.27      88.15      12.28     100.43        2.76  1719.26   0.967
  sub69                    103.87       0.00       0.00       2.04      88.18      13.55     101.73        3.77  2028.83   0.979
  sub70                    103.87       0.00       0.00       6.71      68.39      28.61      96.99        2.80  1117.89   0.934
  sub71                    103.87       0.00       0.00       1.29      94.24       7.02     101.26        2.65  1472.94   0.975
  sub72                    103.87       0.00       0.00       1.15      95.20       6.12     101.32        1.39   711.23   0.976
  
  
  ******************
  Node Depth Summary
  ******************
  
  ---------------------------------------------------------------------------------
                                 Average  Maximum  Maximum  Time of Max    Reported
                                   Depth    Depth      HGL   Occurrence   Max Depth
  Node                 Type       Meters   Meters   Meters  days hr:min      Meters
  ---------------------------------------------------------------------------------
  WS02003060           JUNCTION     0.24     0.37     5.30     0  01:58        0.37
  WS02003066           JUNCTION     0.19     0.29     5.84     0  02:00        0.29
  WS02003067           JUNCTION     0.50     0.69     6.01     0  01:58        0.69
  WS02003069           JUNCTION     0.26     0.41     5.00     0  02:02        0.41
  WS02003072           JUNCTION     0.32     0.48     4.85     0  02:02        0.48
  WS02003073           JUNCTION     0.18     0.29     4.35     0  02:03        0.29
  WS02004401           JUNCTION     0.60     0.82     6.82     0  01:51        0.82
  WS02004402           JUNCTION     0.63     0.85     6.81     0  01:49        0.85
  WS02004403           JUNCTION     0.65     0.86     6.79     0  01:52        0.86
  WS02004404           JUNCTION     0.72     0.94     6.79     0  01:52        0.94
  WS02004405           JUNCTION     0.72     0.93     6.78     0  01:50        0.93
  WS02004406           JUNCTION     0.73     0.94     6.77     0  01:52        0.93
  WS02004407           JUNCTION     0.18     0.28     6.60     0  01:52        0.28
  WS02004409           JUNCTION     0.40     0.64     6.41     0  02:00        0.64
  WS02004410           JUNCTION     0.42     0.66     6.38     0  01:59        0.66
  WS02004411           JUNCTION     0.44     0.67     6.35     0  01:59        0.67
  WS02004412           JUNCTION     0.46     0.68     6.32     0  02:01        0.68
  WS02004413           JUNCTION     0.62     0.84     6.31     0  02:00        0.84
  WS02006109           JUNCTION     0.68     0.94     7.55     0  01:36        0.93
  WS02006110           JUNCTION     0.68     0.90     7.48     0  01:36        0.89
  WS02006111           JUNCTION     0.19     0.28     6.98     0  01:39        0.28
  WS02006112           JUNCTION     0.76     1.03     6.91     0  01:49        1.02
  WS02006113           JUNCTION     0.29     0.44     7.33     0  01:36        0.44
  WS02006115           JUNCTION     0.49     0.72     6.86     0  01:49        0.72
  WS02006116           JUNCTION     0.57     0.80     6.84     0  01:49        0.80
  WS02006228           JUNCTION     0.68     0.97     7.62     0  01:36        0.97
  WS02006229           JUNCTION     0.65     0.97     7.66     0  01:50        0.96
  WS02006230           JUNCTION     0.67     1.03     7.78     0  01:35        1.03
  WS02006231           JUNCTION     0.46     0.99     8.11     0  01:46        0.78
  WS02006232           JUNCTION     0.60     1.21     8.25     0  01:50        1.21
  WS02006234           JUNCTION     0.54     1.43     8.59     0  01:50        1.43
  WS02006235           JUNCTION     0.58     2.00     9.16     0  03:14        2.00
  WS02006238           JUNCTION     0.61     2.15     9.29     0  03:14        2.15
  WS02006239           JUNCTION     0.59     1.60     8.81     0  01:42        1.60
  WS02006240           JUNCTION     0.56     1.87     9.16     0  01:42        1.87
  WS02006242           JUNCTION     0.64     1.55     8.82     0  01:42        1.55
  WS02006243           JUNCTION     0.57     1.48     8.90     0  01:39        1.48
  WS02006245           JUNCTION     0.58     1.56     9.04     0  01:39        1.56
  WS02006247           JUNCTION     0.60     1.47     8.97     0  01:39        1.47
  WS02006248           JUNCTION     0.57     1.10     8.69     0  01:34        1.10
  WS02006249           JUNCTION     0.60     1.09     8.69     0  01:34        1.09
  WS02006251           JUNCTION     0.61     1.42     9.09     0  01:34        1.14
  WS02006252           JUNCTION     0.38     1.50     9.74     0  00:00        0.69
  WS02006256           JUNCTION     1.04     2.35     9.28     0  00:00        2.35
  WSF200               JUNCTION     0.17     0.28     5.51     0  01:58        0.28
  YS02001580           JUNCTION     0.24     1.05     9.59     0  01:31        0.81
  YS02001583           JUNCTION     0.27     1.14     9.64     0  01:31        0.84
  YS02001586           JUNCTION     0.41     1.13     9.30     0  01:31        1.13
  YS02001590           JUNCTION     0.54     1.40     9.26     0  01:31        1.37
  YS02001593           JUNCTION     0.47     1.34     9.21     0  01:31        1.29
  YS02001596           JUNCTION     0.64     1.69     9.11     0  01:31        1.65
  YS02001600           JUNCTION     0.75     1.87     9.00     0  01:31        1.86
  YS02001601           JUNCTION     0.93     2.06     8.90     0  01:30        2.06
  YS02001602           JUNCTION     0.82     1.87     8.77     0  01:31        1.87
  YS02001605           JUNCTION     0.76     1.78     8.68     0  01:31        1.78
  YS02001607           JUNCTION     0.69     1.66     8.51     0  01:42        1.66
  YS02001610           JUNCTION     0.73     1.68     8.48     0  01:31        1.68
  YS02001613           JUNCTION     0.69     1.68     8.52     0  01:31        1.66
  YS02001616           JUNCTION     0.63     1.61     8.52     0  01:31        1.61
  YS02001619           JUNCTION     0.61     1.61     8.54     0  01:31        1.61
  YS02001622           JUNCTION     0.60     1.62     8.52     0  01:31        1.58
  YS02001625           JUNCTION     0.83     1.78     8.38     0  01:31        1.78
  YS02001629           JUNCTION     0.75     1.85     8.40     0  01:31        1.85
  YS02001633           JUNCTION     0.82     2.08     8.53     0  01:39        2.08
  YS02001641           JUNCTION     0.76     2.00     8.43     0  01:39        2.00
  YS02001644           JUNCTION     0.74     1.92     8.35     0  01:33        1.92
  YS02001647           JUNCTION     0.51     1.81     8.42     0  01:35        1.81
  YS02001649           JUNCTION     0.57     2.05     8.44     0  01:35        2.05
  YS02001652           JUNCTION     0.45     2.16     8.76     0  01:35        2.16
  YS02001655           JUNCTION     0.34     2.20     9.05     0  01:35        2.13
  YS02001658           JUNCTION     0.25     2.30     9.44     0  01:34        1.86
  YS02001661           JUNCTION     0.24     2.46     9.86     0  01:35        1.39
  YS02001664           JUNCTION     0.12     2.31    10.23     0  01:35        0.90
  YS02001745           JUNCTION     0.13     2.35     9.87     0  01:34        2.35
  YS02001748           JUNCTION     0.22     2.27     9.35     0  01:34        2.27
  YS02001751           JUNCTION     0.28     2.20     9.08     0  01:34        2.20
  YS02001754           JUNCTION     0.38     2.20     8.81     0  01:34        2.20
  YS02001757           JUNCTION     0.58     2.21     8.47     0  01:35        2.21
  YS02001759           JUNCTION     0.52     2.21     8.57     0  01:37        2.21
  YS02001762           JUNCTION     0.51     2.15     8.55     0  01:35        2.15
  YS02001765           JUNCTION     0.49     2.10     8.55     0  01:35        2.10
  YS02001767           JUNCTION     0.48     2.03     8.52     0  01:35        2.03
  YS02001770           JUNCTION     0.49     1.95     8.44     0  01:33        1.95
  YS02001774           JUNCTION     0.55     2.04     8.46     0  01:39        2.00
  YS02001779           JUNCTION     0.37     1.68     8.37     0  01:34        1.68
  YS02001783           JUNCTION     0.43     1.46     7.60     0  01:33        1.32
  YS02001784           JUNCTION     0.43     1.25     7.32     0  01:33        1.13
  YS02001786           JUNCTION     0.35     0.98     7.01     0  01:33        0.88
  YS02001788           JUNCTION     0.25     0.63     6.61     0  01:37        0.63
  YS02001790           JUNCTION     0.30     0.73     6.38     0  01:37        0.72
  YS02001791           JUNCTION     0.18     0.44     5.91     0  01:36        0.44
  YS02001793           JUNCTION     0.11     0.26     5.09     0  01:37        0.25
  YS02001882           JUNCTION     0.54     1.83     8.55     0  01:32        1.73
  YS02001884           JUNCTION     0.62     1.93     8.55     0  01:32        1.83
  YS02001887           JUNCTION     0.70     1.93     8.47     0  01:32        1.90
  YS02001890           JUNCTION     0.73     1.81     8.32     0  01:32        1.81
  YS02001895           JUNCTION     0.50     1.57     8.31     0  01:42        1.56
  YS02001898           JUNCTION     0.51     1.58     8.31     0  01:33        1.56
  YS02001901           JUNCTION     0.62     1.76     8.37     0  01:39        1.76
  YS02001904           JUNCTION     0.60     1.71     8.34     0  01:39        1.71
  YS02001907           JUNCTION     0.90     1.96     8.25     0  01:33        1.96
  YS02001910           JUNCTION     0.73     2.07     8.58     0  01:39        2.07
  YS02001915           JUNCTION     0.56     2.00     8.72     0  01:32        2.00
  YS02001918           JUNCTION     0.37     1.81     8.88     0  01:34        1.81
  YS02001920           JUNCTION     0.45     2.14     9.14     0  01:34        1.99
  YS02001923           JUNCTION     0.30     2.03     9.29     0  01:34        1.58
  YS02001926           JUNCTION     0.31     1.90     9.35     0  01:34        1.41
  YS02001929           JUNCTION     0.20     1.78     9.47     0  01:34        1.19
  YS02006553           JUNCTION     0.90     2.06     8.35     0  01:39        2.06
  YS02006556           JUNCTION     0.88     2.07     8.38     0  01:33        2.06
  YS02006558           JUNCTION     0.92     2.22     8.48     0  01:39        2.22
  YS02006561           JUNCTION     0.28     1.18     7.84     0  01:33        0.93
  YS02163301           JUNCTION     0.77     1.95     8.47     0  01:33        1.94
  YS02163601           JUNCTION     0.83     2.08     8.48     0  01:33        2.08
  YS02164001           JUNCTION     0.76     2.10     8.56     0  01:39        2.10
  CC-1                 OUTFALL      0.00     0.00     0.00     0  00:00        0.00
  CC-2                 OUTFALL      0.00     0.00     0.00     0  00:00        0.00
  JK-1                 OUTFALL      0.00     0.00     0.00     0  00:00        0.00
  JK-2                 OUTFALL      0.00     0.00     0.00     0  00:00        0.00
  WSC                  OUTFALL      0.18     0.29     0.96     0  02:03        0.29
  CC-storage           STORAGE      0.48     1.29     6.79     0  02:37        1.29
  JK-storage           STORAGE      0.02     2.99     3.79     0  00:00        0.68
  
  
  *******************
  Node Inflow Summary
  *******************
  
  -------------------------------------------------------------------------------------------------
                                  Maximum  Maximum                  Lateral       Total        Flow
                                  Lateral    Total  Time of Max      Inflow      Inflow     Balance
                                   Inflow   Inflow   Occurrence      Volume      Volume       Error
  Node                 Type           LPS      LPS  days hr:min    10^6 ltr    10^6 ltr     Percent
  -------------------------------------------------------------------------------------------------
  WS02003060           JUNCTION     16.53   515.24     0  02:01       0.471        5.13       0.044
  WS02003066           JUNCTION      0.00   498.70     0  02:00           0        4.66       0.033
  WS02003067           JUNCTION      0.00   498.68     0  02:00           0        4.67       0.091
  WS02003069           JUNCTION      0.32   515.56     0  02:01     0.00912        5.14       0.083
  WS02003072           JUNCTION      0.00   515.52     0  02:02           0        5.14       0.149
  WS02003073           JUNCTION      1.82   517.30     0  02:03      0.0519        5.18       0.114
  WS02004401           JUNCTION      0.00   500.95     0  01:49           0        4.77       0.223
  WS02004402           JUNCTION      0.00   500.51     0  01:51           0        4.76       0.225
  WS02004403           JUNCTION      0.00   500.40     0  01:51           0        4.75       0.219
  WS02004404           JUNCTION      0.16   500.04     0  01:52     0.00462        4.75       0.182
  WS02004405           JUNCTION      0.04   500.10     0  01:52     0.00109        4.74       0.268
  WS02004406           JUNCTION      0.00   500.10     0  01:52           0        4.73       0.454
  WS02004407           JUNCTION      0.00   499.81     0  01:52           0         4.7       0.026
  WS02004409           JUNCTION      0.00   499.60     0  01:52           0         4.7       0.062
  WS02004410           JUNCTION      0.00   499.24     0  01:53           0         4.7       0.102
  WS02004411           JUNCTION      0.00   498.79     0  01:57           0         4.7       0.125
  WS02004412           JUNCTION      0.00   498.86     0  01:57           0        4.69       0.165
  WS02004413           JUNCTION      0.00   498.77     0  01:57           0        4.68       0.305
  WS02006109           JUNCTION      1.23   504.20     0  01:36      0.0351        4.83       0.211
  WS02006110           JUNCTION      0.00   504.29     0  01:36           0        4.82       0.152
  WS02006111           JUNCTION      0.00   519.26     0  01:51           0        4.81       0.027
  WS02006112           JUNCTION      0.00   504.35     0  01:49           0         4.8       0.434
  WS02006113           JUNCTION      0.00   505.66     0  01:36           0        4.81       0.037
  WS02006115           JUNCTION      0.00   513.55     0  01:49           0        4.78       0.156
  WS02006116           JUNCTION      0.00   503.10     0  01:49           0        4.78       0.068
  WS02006228           JUNCTION      0.00   503.29     0  01:36           0        4.79       0.096
  WS02006229           JUNCTION      0.00   502.89     0  01:36           0         4.8       0.113
  WS02006230           JUNCTION     10.28   522.94     0  01:50       0.293        4.81       0.131
  WS02006231           JUNCTION      0.00   511.95     0  01:35           0        4.52       0.064
  WS02006232           JUNCTION      0.00   510.59     0  01:35           0        4.52       0.158
  WS02006234           JUNCTION      0.00   516.13     0  01:35           0        4.51      -0.261
  WS02006235           JUNCTION      0.00   522.95     0  01:35           0        4.68       0.116
  WS02006238           JUNCTION      0.00   416.40     0  02:34           0           4       0.246
  WS02006239           JUNCTION      0.00   416.73     0  02:57           0        3.86      -0.081
  WS02006240           JUNCTION      0.00   415.05     0  02:31           0        3.83      -0.063
  WS02006242           JUNCTION      0.00   415.08     0  02:31           0        3.82      -0.015
  WS02006243           JUNCTION      0.00   415.25     0  02:31           0        3.82      -0.115
  WS02006245           JUNCTION      0.00   415.08     0  02:31           0        3.83       0.326
  WS02006247           JUNCTION      0.00   417.59     0  01:30           0        3.83      -0.029
  WS02006248           JUNCTION      0.00   414.96     0  02:31           0        3.83      -0.066
  WS02006249           JUNCTION      0.00   459.02     0  00:00           0        3.88       0.522
  WS02006251           JUNCTION      0.08   406.55     0  04:32     0.00219        3.88       0.002
  WS02006252           JUNCTION      0.00   400.00     0  00:00           0        3.86      -0.283
  WS02006256           JUNCTION      0.00   300.00     0  00:00           0        1.03     -10.223
  WSF200               JUNCTION      0.00   498.69     0  02:00           0        4.66       0.011
  YS02001580           JUNCTION      0.00   131.41     0  01:31           0     0.00428      -0.207
  YS02001583           JUNCTION      0.00   218.73     0  01:31           0      0.0149      -8.219
  YS02001586           JUNCTION   1117.89  1117.92     0  01:42         2.8        2.81       0.058
  YS02001590           JUNCTION      0.00   319.21     0  01:39           0        1.78      -0.028
  YS02001593           JUNCTION      0.00   318.56     0  01:39           0        1.78       0.022
  YS02001596           JUNCTION      0.00   317.94     0  01:50           0        1.78       0.003
  YS02001600           JUNCTION      0.00   317.86     0  02:10           0        1.78       0.016
  YS02001601           JUNCTION   2028.83  2346.26     0  01:40        3.77        5.55       0.017
  YS02001602           JUNCTION      0.00   560.00     0  01:31           0        2.88       0.019
  YS02001605           JUNCTION      0.00   559.61     0  01:31           0        2.71       0.026
  YS02001607           JUNCTION      0.00   559.31     0  01:31           0        2.71       0.075
  YS02001610           JUNCTION      0.00   947.30     0  01:46           0        3.42       0.076
  YS02001613           JUNCTION      0.00   610.58     0  01:46           0        2.69       0.055
  YS02001616           JUNCTION      0.00   610.87     0  01:46           0        2.69       0.024
  YS02001619           JUNCTION   1993.77  1993.77     0  01:41         4.5        6.49       0.003
  YS02001622           JUNCTION      0.00  1057.82     0  01:39           0        5.64      -0.005
  YS02001625           JUNCTION      0.00  1504.90     0  01:47           0        6.02       0.159
  YS02001629           JUNCTION      0.00   952.13     0  01:31           0        4.77       0.008
  YS02001633           JUNCTION   1523.31  1523.31     0  01:40        2.77        6.92       0.052
  YS02001641           JUNCTION      0.00  1430.04     0  01:33           0        6.31       0.047
  YS02001644           JUNCTION   1359.81  2348.14     0  01:39        2.41        8.76       0.039
  YS02001647           JUNCTION      0.00  1900.60     0  01:33           0        7.48       0.006
  YS02001649           JUNCTION      0.00  2141.78     0  01:33           0        9.65       0.006
  YS02001652           JUNCTION      0.00  1332.33     0  01:39           0        2.22      -0.080
  YS02001655           JUNCTION      0.15  1333.83     0  01:39     0.00439        2.23       0.042
  YS02001658           JUNCTION      0.00  1336.02     0  01:39           0        2.22      -0.036
  YS02001661           JUNCTION      0.00  1344.55     0  01:39           0        2.22       0.022
  YS02001664           JUNCTION   1329.16  1329.16     0  01:39        2.22        2.22      -0.029
  YS02001745           JUNCTION    859.69   859.69     0  01:38        1.32        1.33       0.069
  YS02001748           JUNCTION      0.04   873.96     0  01:38     0.00128        1.33      -0.231
  YS02001751           JUNCTION      0.01   874.00     0  01:38    0.000313        1.34       0.049
  YS02001754           JUNCTION      0.26   874.70     0  01:38     0.00741        1.35      -0.077
  YS02001757           JUNCTION      0.00  3472.31     0  01:46           0        14.9       0.036
  YS02001759           JUNCTION   1192.00  1519.64     0  01:34        1.84        3.92      -0.002
  YS02001762           JUNCTION      0.00   849.49     0  01:34           0        2.08      -0.001
  YS02001765           JUNCTION      0.00   851.84     0  01:34           0        2.08       0.011
  YS02001767           JUNCTION      0.54   853.19     0  01:34      0.0152        2.08       0.004
  YS02001770           JUNCTION   1677.99  1677.99     0  01:39        2.78        2.83      -0.014
  YS02001774           JUNCTION      0.00   851.62     0  01:42           0       0.622       0.198
  YS02001779           JUNCTION      0.01   851.45     0  01:42    0.000142       0.577      -0.107
  YS02001783           JUNCTION      0.00  1178.61     0  01:37           0         5.4       0.006
  YS02001784           JUNCTION      1.06  1179.44     0  01:37      0.0302        5.43       0.009
  YS02001786           JUNCTION      0.06  1179.90     0  01:37      0.0016        5.43       0.013
  YS02001788           JUNCTION      0.07  1180.19     0  01:37     0.00202        5.43       0.005
  YS02001790           JUNCTION      0.15  1191.65     0  01:39     0.00442        5.44      -0.003
  YS02001791           JUNCTION      0.00  1306.11     0  01:37           0        5.44      -0.001
  YS02001793           JUNCTION      0.00  1263.03     0  01:37           0        5.44       0.007
  YS02001882           JUNCTION      0.00    68.79     0  01:32           0      0.0135       4.945
  YS02001884           JUNCTION      0.00   123.44     0  01:32           0      0.0495       5.473
  YS02001887           JUNCTION   1301.61  1301.61     0  01:38         1.9        1.93       0.229
  YS02001890           JUNCTION      0.00  1301.49     0  01:38           0        1.89       0.274
  YS02001895           JUNCTION      0.00   533.56     0  01:33           0        1.51       0.123
  YS02001898           JUNCTION      0.00   532.45     0  01:33           0        1.51       0.009
  YS02001901           JUNCTION      0.00   530.00     0  01:33           0        1.51       0.233
  YS02001904           JUNCTION      0.00   529.92     0  01:33           0        1.52       0.192
  YS02001907           JUNCTION      0.00  3072.92     0  01:39           0        5.78       0.313
  YS02001910           JUNCTION      0.00  1992.87     0  01:42           0        4.08       0.177
  YS02001915           JUNCTION   1472.96  2187.00     0  01:40        2.65        4.17       0.037
  YS02001918           JUNCTION      0.00   715.35     0  01:40           0        1.56       0.018
  YS02001920           JUNCTION      2.87   715.29     0  01:40      0.0818        1.53       0.058
  YS02001923           JUNCTION      0.04   711.68     0  01:40     0.00107        1.44      -0.036
  YS02001926           JUNCTION      0.05   943.06     0  01:33     0.00149        1.41      -0.008
  YS02001929           JUNCTION    711.23   781.17     0  01:33        1.39         1.4      -0.041
  YS02006553           JUNCTION      0.00   791.00     0  02:09           0        3.06       0.387
  YS02006556           JUNCTION      0.00   790.72     0  02:09           0        3.07       0.273
  YS02006558           JUNCTION   1720.14  1720.14     0  01:39        2.79        5.63       0.059
  YS02006561           JUNCTION      0.00  1178.68     0  01:37           0         5.4      -0.001
  YS02163301           JUNCTION      0.00   926.17     0  02:15           0        4.75       0.037
  YS02163601           JUNCTION      0.11  1430.00     0  01:33     0.00313         6.3       0.081
  YS02164001           JUNCTION      0.00  1429.98     0  01:33           0         6.3       0.042
  CC-1                 OUTFALL       0.00   683.00     0  00:00           0         6.6       0.000
  CC-2                 OUTFALL       0.00   683.00     0  00:00           0         6.6       0.000
  JK-1                 OUTFALL       0.00  1000.00     0  00:00           0        2.92       0.000
  JK-2                 OUTFALL       0.00  1000.00     0  00:00           0        2.92       0.000
  WSC                  OUTFALL       0.00   517.25     0  02:03           0        5.17       0.000
  CC-storage           STORAGE       0.00  3471.69     0  01:46           0        17.1      -0.304
  JK-storage           STORAGE       0.00  1318.03     0  01:37           0        5.59     -18.340
  
  
  **********************
  Node Surcharge Summary
  **********************
  
  Surcharging occurs when water rises above the top of the highest conduit.
  ---------------------------------------------------------------------
                                               Max. Height   Min. Depth
                                   Hours       Above Crown    Below Rim
  Node                 Type      Surcharged         Meters       Meters
  ---------------------------------------------------------------------
  WS02006109           JUNCTION        2.26          0.117        1.703
  WS02006112           JUNCTION        0.55          0.031        1.649
  WS02006228           JUNCTION        2.25          0.143        2.057
  WS02006229           JUNCTION        2.27          0.165        2.285
  WS02006231           JUNCTION        0.68          0.276        1.254
  WS02006232           JUNCTION        2.35          0.508        0.972
  WS02006234           JUNCTION        1.81          0.710        0.530
  WS02006235           JUNCTION        2.27          1.290        0.000
  WS02006238           JUNCTION        2.31          1.430        0.000
  WS02006239           JUNCTION        2.27          0.858        0.432
  WS02006240           JUNCTION        2.28          1.162        0.228
  WS02006242           JUNCTION        2.38          0.820        0.000
  WS02006243           JUNCTION        2.29          0.770        0.000
  WS02006245           JUNCTION        2.29          0.850        0.000
  WS02006247           JUNCTION        2.31          0.760        0.000
  WS02006248           JUNCTION        2.27          0.380        0.000
  WS02006249           JUNCTION        2.29          0.390        0.000
  WS02006251           JUNCTION        0.92          0.389        0.791
  WS02006252           JUNCTION        2.68          1.100        0.000
  WS02006256           JUNCTION        6.81          2.050        0.000
  YS02001580           JUNCTION        1.00          0.450        0.000
  YS02001583           JUNCTION        1.01          0.500        0.000
  YS02001586           JUNCTION        1.13          0.510        0.000
  YS02001590           JUNCTION        1.23          0.750        0.000
  YS02001593           JUNCTION        1.23          0.724        0.116
  YS02001596           JUNCTION        1.37          0.959        0.111
  YS02001600           JUNCTION        1.60          1.190        0.000
  YS02001601           JUNCTION        1.83          1.440        0.000
  YS02001602           JUNCTION        1.75          1.270        0.000
  YS02001605           JUNCTION        1.71          1.180        0.000
  YS02001607           JUNCTION        1.14          0.658        0.022
  YS02001610           JUNCTION        1.18          0.680        0.000
  YS02001613           JUNCTION        1.12          0.682        0.018
  YS02001616           JUNCTION        1.07          0.610        0.000
  YS02001619           JUNCTION        1.05          0.610        0.000
  YS02001622           JUNCTION        1.04          0.620        0.000
  YS02001625           JUNCTION        1.30          0.780        0.000
  YS02001629           JUNCTION        0.91          0.470        0.000
  YS02001633           JUNCTION        1.31          1.060        0.000
  YS02001641           JUNCTION        1.17          0.996        0.104
  YS02001644           JUNCTION        1.10          0.920        0.000
  YS02001647           JUNCTION        0.78          0.808        0.092
  YS02001649           JUNCTION        0.91          1.050        0.000
  YS02001652           JUNCTION        0.62          1.130        0.000
  YS02001655           JUNCTION        0.42          1.200        0.000
  YS02001658           JUNCTION        0.31          1.300        0.000
  YS02001661           JUNCTION        0.17          1.390        0.000
  YS02001664           JUNCTION        0.01          1.310        0.000
  YS02001745           JUNCTION        0.01          1.350        0.000
  YS02001748           JUNCTION        0.21          1.190        0.000
  YS02001751           JUNCTION        0.33          1.200        0.000
  YS02001754           JUNCTION        0.43          1.150        0.000
  YS02001757           JUNCTION        0.96          1.210        0.000
  YS02001759           JUNCTION        0.80          1.210        0.000
  YS02001762           JUNCTION        0.76          1.150        0.000
  YS02001765           JUNCTION        0.69          1.100        0.000
  YS02001767           JUNCTION        0.64          1.030        0.000
  YS02001770           JUNCTION        0.60          0.920        0.000
  YS02001774           JUNCTION        0.74          1.038        0.012
  YS02001779           JUNCTION        0.45          0.680        0.000
  YS02001783           JUNCTION        0.83          0.662        0.938
  YS02001784           JUNCTION        0.79          0.453        1.037
  YS02001786           JUNCTION        0.67          0.184        1.246
  YS02001882           JUNCTION        0.75          0.830        0.000
  YS02001884           JUNCTION        0.76          0.870        0.000
  YS02001887           JUNCTION        0.81          0.885        0.065
  YS02001890           JUNCTION        0.83          0.760        0.000
  YS02001895           JUNCTION        0.74          0.567        0.183
  YS02001898           JUNCTION        0.73          0.546        0.194
  YS02001901           JUNCTION        0.79          0.758        0.112
  YS02001904           JUNCTION        0.78          0.714        0.136
  YS02001907           JUNCTION        1.11          0.950        0.000
  YS02001910           JUNCTION        0.86          1.070        0.030
  YS02001915           JUNCTION        0.75          1.000        0.000
  YS02001918           JUNCTION        0.65          0.810        0.000
  YS02001920           JUNCTION        0.66          1.135        0.005
  YS02001923           JUNCTION        0.27          0.820        0.000
  YS02001926           JUNCTION        0.30          0.900        0.000
  YS02001929           JUNCTION        0.16          0.780        0.000
  YS02006553           JUNCTION        1.15          1.063        0.127
  YS02006556           JUNCTION        0.97          1.030        0.320
  YS02006558           JUNCTION        0.96          1.117        0.283
  YS02006561           JUNCTION        0.61          0.376        0.774
  YS02163301           JUNCTION        1.29          0.949        0.081
  YS02163601           JUNCTION        1.35          1.080        0.000
  YS02164001           JUNCTION        1.19          1.100        0.000
  
  
  *********************
  Node Flooding Summary
  *********************
  
  Flooding refers to all water that overflows a node, whether it ponds or not.
  --------------------------------------------------------------------------
                                                             Total   Maximum
                                 Maximum   Time of Max       Flood    Ponded
                        Hours       Rate    Occurrence      Volume     Depth
  Node                 Flooded       LPS   days hr:min    10^6 ltr    Meters
  --------------------------------------------------------------------------
  WS02006235              0.01     14.22      0  03:14       0.000     0.000
  WS02006238              0.01     16.14      0  03:14       0.000     0.000
  WS02006242              0.01      3.77      0  01:42       0.000     0.000
  WS02006243              0.01      2.69      0  01:42       0.000     0.000
  WS02006245              0.01      2.06      0  01:42       0.000     0.000
  WS02006247              0.01      1.59      0  01:42       0.000     0.000
  WS02006248              0.01      9.26      0  01:42       0.000     0.000
  WS02006249              0.73     54.75      0  01:34       0.029     0.000
  WS02006252              0.01    264.47      0  04:01       0.001     0.000
  WS02006256              0.99    293.19      0  00:00       0.430     0.000
  YS02001580              0.01     76.89      0  01:31       0.000     0.000
  YS02001583              0.01    157.01      0  01:31       0.000     0.000
  YS02001586              0.83    800.37      0  01:42       1.019     0.000
  YS02001590              0.01      5.24      0  01:31       0.000     0.000
  YS02001600              0.01      1.82      0  01:31       0.000     0.000
  YS02001601              1.01   1948.36      0  01:40       2.666     0.000
  YS02001602              0.80     61.93      0  01:40       0.164     0.000
  YS02001605              0.01      2.24      0  01:31       0.000     0.000
  YS02001610              0.71    947.12      0  01:46       1.437     0.000
  YS02001616              0.18      6.33      0  01:31       0.000     0.000
  YS02001619              0.19    333.39      0  01:41       0.136     0.000
  YS02001622              0.01    176.31      0  01:31       0.000     0.000
  YS02001625              0.60   1504.76      0  01:47       1.847     0.000
  YS02001629              0.25    526.69      0  01:37       0.246     0.000
  YS02001633              0.01      0.73      0  01:39       0.000     0.000
  YS02001644              0.29   2347.55      0  01:39       1.321     0.000
  YS02001649              0.02    336.60      0  01:35       0.011     0.000
  YS02001652              0.01     67.79      0  01:35       0.000     0.000
  YS02001655              0.01     83.11      0  01:35       0.000     0.000
  YS02001658              0.01    345.36      0  01:34       0.001     0.000
  YS02001661              0.01     80.79      0  01:35       0.000     0.000
  YS02001664              0.01    238.39      0  01:35       0.000     0.000
  YS02001745              0.01    398.32      0  01:34       0.001     0.000
  YS02001748              0.01    482.69      0  01:34       0.002     0.000
  YS02001751              0.01     47.92      0  01:34       0.000     0.000
  YS02001754              0.01     72.66      0  01:35       0.000     0.000
  YS02001757              0.01    132.07      0  01:35       0.001     0.000
  YS02001759              0.01      1.07      0  01:37       0.000     0.000
  YS02001762              0.01     12.27      0  01:35       0.000     0.000
  YS02001765              0.01     10.41      0  01:35       0.000     0.000
  YS02001767              0.01      5.62      0  01:35       0.000     0.000
  YS02001770              0.13    561.46      0  01:38       0.160     0.000
  YS02001779              0.28    851.27      0  01:42       0.553     0.000
  YS02001882              0.01     31.46      0  01:32       0.000     0.000
  YS02001884              0.01     27.91      0  01:32       0.000     0.000
  YS02001890              0.29    783.75      0  01:38       0.373     0.000
  YS02001907              0.58   3071.51      0  01:39       2.915     0.000
  YS02001915              0.10    194.68      0  01:40       0.041     0.000
  YS02001918              0.01    164.17      0  01:34       0.002     0.000
  YS02001923              0.01    115.47      0  01:34       0.000     0.000
  YS02001926              0.01    668.68      0  01:34       0.003     0.000
  YS02001929              0.01    543.64      0  01:34       0.003     0.000
  YS02163601              0.01      8.22      0  01:33       0.000     0.000
  YS02164001              0.01      0.57      0  01:39       0.000     0.000
  
  
  **********************
  Storage Volume Summary
  **********************
  
  ------------------------------------------------------------------------------------------------
                         Average    Avg   Evap  Exfil     Maximum    Max    Time of Max    Maximum
                          Volume   Pcnt   Pcnt   Pcnt      Volume   Pcnt     Occurrence    Outflow
  Storage Unit           1000 m³   Full   Loss   Loss     1000 m³   Full    days hr:min        LPS
  ------------------------------------------------------------------------------------------------
  CC-storage               1.328   20.7    0.0    0.0       3.590   56.0       0  02:37    1783.53
  JK-storage               0.001    0.3    0.0    0.0       0.150   51.6       0  00:00    2300.00
  
  
  ***********************
  Outfall Loading Summary
  ***********************
  
  -----------------------------------------------------------
                         Flow       Avg       Max       Total
                         Freq      Flow      Flow      Volume
  Outfall Node           Pcnt       LPS       LPS    10^6 ltr
  -----------------------------------------------------------
  CC-1                  59.77    683.00    683.00       6.598
  CC-2                  59.77    683.00    683.00       6.598
  JK-1                  21.54    934.14   1000.00       2.919
  JK-2                  21.54    934.14   1000.00       2.919
  WSC                   99.95    264.92    517.25       5.174
  -----------------------------------------------------------
  System                52.51   3499.21   3883.25      24.208
  
  
  ********************
  Link Flow Summary
  ********************
  
  -----------------------------------------------------------------------------
                                 Maximum  Time of Max   Maximum    Max/    Max/
                                  |Flow|   Occurrence   |Veloc|    Full    Full
  Link                 Type          LPS  days hr:min     m/sec    Flow   Depth
  -----------------------------------------------------------------------------
  1                    CONDUIT    517.25     0  02:03      2.77    0.18    0.29
  WS02003060WS02003069 CONDUIT    515.24     0  02:01      1.61    0.20    0.33
  WS02003066WSF200     CONDUIT    498.69     0  02:00      2.80    0.08    0.21
  WS02003067WS02003066 CONDUIT    498.70     0  02:00      1.16    0.16    0.41
  WS02003069WS02003072 CONDUIT    515.52     0  02:02      1.34    0.25    0.37
  WS02003072WS02003073 CONDUIT    515.48     0  02:03      1.40    1.11    0.36
  WS02004401WS02004402 CONDUIT    500.51     0  01:51      1.22    0.60    0.83
  WS02004402WS02004403 CONDUIT    500.40     0  01:51      1.24    0.72    0.86
  WS02004403WS02004404 CONDUIT    499.88     0  01:52      1.24    0.36    0.90
  WS02004404WS02004405 CONDUIT    500.06     0  01:52      1.45    4.90    0.94
  WS02004405WS02004406 CONDUIT    500.10     0  01:52      1.46    0.99    0.93
  WS02004406WS02004407 CONDUIT    499.81     0  01:52      1.00    0.22    0.61
  WS02004407WS02004409 CONDUIT    499.60     0  01:52      1.59    0.18    0.46
  WS02004409WS02004410 CONDUIT    499.24     0  01:53      1.06    0.65    0.65
  WS02004410WS02004411 CONDUIT    498.79     0  01:57      1.12    0.68    0.66
  WS02004411WS02004412 CONDUIT    498.86     0  01:57      1.22    0.71    0.67
  WS02004412WS02004413 CONDUIT    498.77     0  01:57      1.22    0.33    0.76
  WS02004413WS02003067 CONDUIT    498.68     0  02:00      1.07    0.21    0.58
  WS02006109WS02006110 CONDUIT    504.29     0  01:36      1.01    0.97    0.99
  WS02006110WS02006113 CONDUIT    505.66     0  01:36      1.22    0.46    0.77
  WS02006111WS02006112 CONDUIT    504.35     0  01:49      1.95    0.24    0.67
  WS02006112WS02006115 CONDUIT    513.55     0  01:49      0.82    0.30    0.85
  WS02006113WS02006111 CONDUIT    519.26     0  01:51      2.40    0.62    0.45
  WS02006115WS02006116 CONDUIT    503.10     0  01:49      1.29    0.65    0.73
  WS02006116WS02004401 CONDUIT    500.95     0  01:49      1.21    0.69    0.81
  WS02006228WS02006109 CONDUIT    502.97     0  01:36      1.06    2.20    1.00
  WS02006229WS02006228 CONDUIT    503.29     0  01:36      1.12    1.67    1.00
  WS02006230WS02006229 CONDUIT    502.89     0  01:36      1.31   11.19    1.00
  WS02006231WS02006230 CONDUIT    512.66     0  01:50      1.43    7.78    0.97
  WS02006232WS02006231 CONDUIT    511.95     0  01:35      1.33    1.07    1.00
  WS02006234WS02006232 CONDUIT    510.59     0  01:35      1.39    1.03    1.00
  WS02006235WS02006234 CONDUIT    516.13     0  01:35      1.34    5.45    1.00
  WS02006238WS02006235 CONDUIT    422.30     0  02:39      1.45    0.94    1.00
  WS02006239WS02006238 CONDUIT    416.40     0  02:34      1.11    1.33    1.00
  WS02006240WS02006239 CONDUIT    416.73     0  02:57      1.24    1.31    1.00
  WS02006242WS02006240 CONDUIT    415.05     0  02:31      1.16    1.65    1.00
  WS02006243WS02006242 CONDUIT    415.08     0  02:31      1.38    0.89    1.00
  WS02006245WS02006243 CONDUIT    415.25     0  02:31      1.44    1.23    1.00
  WS02006247WS02006245 CONDUIT    415.08     0  02:31      1.43    3.29    1.00
  WS02006248WS02006247 CONDUIT    417.59     0  01:30      1.42    0.91    1.00
  WS02006249WS02006248 CONDUIT    414.96     0  02:31      1.39    2.27    1.00
  WS02006251WS02006249 CONDUIT    459.02     0  00:00      2.09    1.32    1.00
  WS02006252WS02006251 CONDUIT    406.48     0  04:32     25.42    1.49    1.00
  WS02006256WS02006235 CONDUIT    288.91     0  00:00      4.23    3.06    1.00
  WSF200WS02003060     CONDUIT    498.71     0  02:01      2.02    0.11    0.27
  YS02001580YS02001583 CONDUIT    131.41     0  01:31      0.80    0.51    1.00
  YS02001583YS02001586 CONDUIT    182.12     0  01:31      0.77    0.28    1.00
  YS02001586YS02001590 CONDUIT    319.21     0  01:39      1.28    0.56    1.00
  YS02001590YS02001593 CONDUIT    318.56     0  01:39      1.13    2.00    1.00
  YS02001593YS02001596 CONDUIT    317.94     0  01:50      1.75    0.50    1.00
  YS02001596YS02001600 CONDUIT    317.86     0  02:10      1.25    0.62    1.00
  YS02001600YS02001601 CONDUIT    317.97     0  01:39      1.12    0.55    1.00
  YS02001601YS02001602 CONDUIT    560.00     0  01:31      1.98    2.02    1.00
  YS02001602YS02001605 CONDUIT    559.61     0  01:31      1.98   11.84    1.00
  YS02001605YS02001607 CONDUIT    559.31     0  01:31      1.98    3.07    1.00
  YS02001607YS02001610 CONDUIT    550.04     0  01:31      0.70    0.52    1.00
  YS02001610YS02001613 CONDUIT    611.00     0  01:46      0.78    0.70    1.00
  YS02001613YS02001616 CONDUIT    610.58     0  01:46      0.78    0.52    1.00
  YS02001616YS02001619 CONDUIT    610.87     0  01:46      0.78    1.06    1.00
  YS02001619YS02001622 CONDUIT   1057.82     0  01:39      1.35    1.56    1.00
  YS02001622YS02001625 CONDUIT   1053.52     0  01:46      1.34    0.56    1.00
  YS02001625YS02001629 CONDUIT    952.13     0  01:31      1.21    0.45    1.00
  YS02001629YS02163301 CONDUIT    926.17     0  02:15      1.18    1.14    1.00
  YS02001633YS02163601 CONDUIT   1429.89     0  01:33      1.82    1.50    1.00
  YS02001641YS02001644 CONDUIT   1429.84     0  01:33      1.82    4.62    1.00
  YS02001644YS02001647 CONDUIT   1900.60     0  01:33      2.42    1.12    1.00
  YS02001647YS02001649 CONDUIT   1892.86     0  01:33      2.41    1.00    1.00
  YS02001649YS02001757 CONDUIT   2137.95     0  01:33      2.72    1.30    1.00
  YS02001652YS02001649 CONDUIT   1332.89     0  01:39      1.70    0.66    1.00
  YS02001655YS02001652 CONDUIT   1332.33     0  01:39      1.70    0.65    1.00
  YS02001658YS02001655 CONDUIT   1333.68     0  01:39      1.98    0.57    1.00
  YS02001661YS02001658 CONDUIT   1336.02     0  01:39      2.41    0.52    1.00
  YS02001664YS02001661 CONDUIT   1344.55     0  01:39      2.49    0.42    1.00
  YS02001745YS02001748 CONDUIT    873.92     0  01:38      2.33    0.34    1.00
  YS02001748YS02001751 CONDUIT    873.99     0  01:38      1.82    0.44    1.00
  YS02001751YS02001754 CONDUIT    874.44     0  01:38      1.51    0.42    1.00
  YS02001754YS02001757 CONDUIT    874.44     0  01:38      1.11    0.35    1.00
  YS02001757CaochengTiaoxuchi CONDUIT   3471.69     0  01:46      7.50    1.50    1.00
  YS02001759YS02001757 CONDUIT   1516.33     0  01:34      1.93    1.08    1.00
  YS02001762YS02001759 CONDUIT    848.81     0  01:34      1.08    0.98    1.00
  YS02001765YS02001762 CONDUIT    849.49     0  01:34      1.08    0.80    1.00
  YS02001767YS02001765 CONDUIT    851.84     0  01:34      1.08    1.07    1.00
  YS02001770YS02001767 CONDUIT    852.66     0  01:34      1.09    3.38    1.00
  YS02001774YS02001770 CONDUIT    851.62     0  01:42      1.08    0.54    1.00
  YS02001779YS02001774 CONDUIT    851.44     0  01:42      1.08    0.43    1.00
  YS02001783YS02001784 CONDUIT   1178.38     0  01:37      2.34    1.62    1.00
  YS02001784YS02001785 CONDUIT   1179.85     0  01:37      2.35    2.75    1.00
  YS02001786YS02001788 CONDUIT   1180.12     0  01:37      2.51    2.27    0.89
  YS02001788YS02001790 CONDUIT   1191.49     0  01:39      2.77    0.88    0.85
  YS02001790YS02001791 CONDUIT   1306.11     0  01:37      3.44    1.42    0.71
  YS02001791YS02001793 CONDUIT   1263.03     0  01:37      6.43    0.54    0.43
  YS02001793JiankangQianchi CONDUIT   1318.03     0  01:37     24.85    0.10    0.50
  YS02001882YS02001884 CONDUIT     68.79     0  01:32      0.19    0.08    1.00
  YS02001884YS02001887 CONDUIT    123.44     0  01:32      0.16    0.16    1.00
  YS02001887YS02001890 CONDUIT   1301.49     0  01:38      1.66    2.23    1.00
  YS02001890YS02001895 CONDUIT    533.56     0  01:33      0.68    0.25    1.00
  YS02001895YS02001898 CONDUIT    532.45     0  01:33      0.68    0.92    1.00
  YS02001898YS02001901 CONDUIT    530.00     0  01:33      0.67    0.34    1.00
  YS02001901YS02001904 CONDUIT    529.92     0  01:33      0.67    0.82    1.00
  YS02001904YS02001907 CONDUIT    530.84     0  01:33      0.68    0.19    1.00
  YS02001907YS02006553 CONDUIT    791.00     0  02:09      0.88    0.93    1.00
  YS02001910YS02001907 CONDUIT   1992.77     0  01:41      2.54    1.12    1.00
  YS02001915YS02001910 CONDUIT   1992.87     0  01:42      2.54    0.99    1.00
  YS02001918YS02001915 CONDUIT    715.23     0  01:40      0.91    0.39    1.00
  YS02001920YS02001918 CONDUIT    715.35     0  01:40      0.91    0.69    1.00
  YS02001923YS02001920 CONDUIT    712.42     0  01:40      0.91    0.32    1.00
  YS02001926YS02001923 CONDUIT    717.44     0  01:33      1.15    1.02    1.00
  YS02001929YS02001926 CONDUIT    711.84     0  01:40      1.19    0.34    1.00
  YS02006553YS02006556 CONDUIT    790.72     0  02:09      1.01    0.68    1.00
  YS02006556YS02006558 CONDUIT    791.03     0  02:09      1.01    0.62    1.00
  YS02006558YS02006561 CONDUIT   1178.68     0  01:37      4.17    2.61    1.00
  YS02006561YS02001783 CONDUIT   1178.61     0  01:37      2.34    0.61    1.00
  YS02163301YS02001633 CONDUIT    926.04     0  02:15      1.18    0.87    1.00
  YS02163601YS02164001 CONDUIT   1429.98     0  01:33      1.82    1.27    1.00
  YS02164001YS02001641 CONDUIT   1430.04     0  01:33      1.82    1.95    1.00
  CC-R1                PUMP       683.00     0  00:00              1.00
  CC-R2                PUMP       683.00     0  00:00              1.00
  CC-S1                PUMP       200.00     0  00:00              1.00
  CC-S2                PUMP       200.00     0  00:00              1.00
  JK-R1                PUMP      1000.00     0  00:00              1.00
  JK-R2                PUMP      1000.00     0  00:00              1.00
  JK-S                 PUMP       300.00     0  00:00              1.00
  
  
  ***************************
  Flow Classification Summary
  ***************************
  
  -------------------------------------------------------------------------------------
                      Adjusted    ---------- Fraction of Time in Flow Class ---------- 
                       /Actual         Up    Down  Sub   Sup   Up    Down  Norm  Inlet 
  Conduit               Length    Dry  Dry   Dry   Crit  Crit  Crit  Crit  Ltd   Ctrl  
  -------------------------------------------------------------------------------------
  1                       1.00   0.00  0.00  0.00  0.00  1.00  0.00  0.00  0.35  0.00
  WS02003060WS02003069    1.00   0.00  0.00  0.00  0.98  0.02  0.00  0.00  0.70  0.00
  WS02003066WSF200        1.00   0.05  0.00  0.00  0.00  0.95  0.00  0.00  0.92  0.00
  WS02003067WS02003066    1.00   0.05  0.00  0.00  0.95  0.00  0.00  0.00  0.00  0.00
  WS02003069WS02003072    1.00   0.00  0.00  0.00  0.99  0.01  0.00  0.00  0.71  0.00
  WS02003072WS02003073    1.00   0.00  0.00  0.00  0.00  0.00  0.00  1.00  0.00  0.00
  WS02004401WS02004402    1.00   0.02  0.00  0.00  0.98  0.00  0.00  0.00  0.00  0.00
  WS02004402WS02004403    1.00   0.02  0.00  0.00  0.98  0.00  0.00  0.00  0.00  0.00
  WS02004403WS02004404    1.00   0.00  0.03  0.00  0.97  0.00  0.00  0.00  0.00  0.00
  WS02004404WS02004405    1.00   0.00  0.00  0.00  1.00  0.00  0.00  0.00  0.00  0.00
  WS02004405WS02004406    1.00   0.00  0.00  0.00  1.00  0.00  0.00  0.00  0.00  0.00
  WS02004406WS02004407    1.00   0.00  0.03  0.00  0.97  0.00  0.00  0.00  0.00  0.00
  WS02004407WS02004409    1.00   0.03  0.00  0.00  0.95  0.01  0.00  0.00  0.95  0.00
  WS02004409WS02004410    1.00   0.03  0.00  0.00  0.96  0.00  0.00  0.00  0.00  0.00
  WS02004410WS02004411    1.00   0.04  0.00  0.00  0.96  0.00  0.00  0.00  0.00  0.00
  WS02004411WS02004412    1.00   0.04  0.00  0.00  0.96  0.00  0.00  0.00  0.00  0.00
  WS02004412WS02004413    1.00   0.04  0.00  0.00  0.96  0.00  0.00  0.00  0.00  0.00
  WS02004413WS02003067    1.00   0.04  0.01  0.00  0.00  0.00  0.95  0.00  0.00  0.00
  WS02006109WS02006110    1.00   0.00  0.01  0.00  0.98  0.00  0.01  0.00  0.00  0.00
  WS02006110WS02006113    1.00   0.01  0.01  0.00  0.98  0.00  0.00  0.00  0.00  0.00
  WS02006111WS02006112    1.00   0.02  0.00  0.00  0.98  0.00  0.00  0.00  0.98  0.00
  WS02006112WS02006115    1.00   0.02  0.00  0.00  0.97  0.00  0.00  0.00  0.00  0.00
  WS02006113WS02006111    1.00   0.02  0.00  0.00  0.00  0.98  0.00  0.00  0.11  0.00
  WS02006115WS02006116    1.00   0.02  0.00  0.00  0.97  0.00  0.00  0.01  0.00  0.00
  WS02006116WS02004401    1.00   0.02  0.00  0.00  0.98  0.00  0.00  0.00  0.00  0.00
  WS02006228WS02006109    1.00   0.00  0.00  0.00  1.00  0.00  0.00  0.00  0.00  0.00
  WS02006229WS02006228    1.00   0.00  0.00  0.00  0.99  0.00  0.00  0.01  0.00  0.00
  WS02006230WS02006229    1.00   0.00  0.00  0.00  0.99  0.00  0.00  0.01  0.03  0.00
  WS02006231WS02006230    1.00   0.00  0.00  0.00  0.31  0.00  0.69  0.00  0.00  0.00
  WS02006232WS02006231    1.00   0.00  0.00  0.00  0.99  0.00  0.00  0.00  0.00  0.00
  WS02006234WS02006232    1.00   0.00  0.00  0.00  1.00  0.00  0.00  0.00  0.01  0.00
  WS02006235WS02006234    1.00   0.00  0.00  0.00  0.94  0.00  0.06  0.00  0.00  0.00
  WS02006238WS02006235    1.00   0.00  0.00  0.00  1.00  0.00  0.00  0.00  0.00  0.00
  WS02006239WS02006238    1.00   0.00  0.00  0.00  1.00  0.00  0.00  0.00  0.05  0.00
  WS02006240WS02006239    1.00   0.00  0.00  0.00  0.93  0.00  0.00  0.07  0.32  0.00
  WS02006242WS02006240    1.00   0.00  0.00  0.00  0.90  0.00  0.10  0.00  0.00  0.00
  WS02006243WS02006242    1.00   0.00  0.00  0.00  0.98  0.00  0.00  0.02  0.59  0.00
  WS02006245WS02006243    1.00   0.00  0.00  0.00  0.71  0.00  0.00  0.29  0.00  0.00
  WS02006247WS02006245    1.00   0.00  0.00  0.00  0.97  0.00  0.00  0.03  0.00  0.00
  WS02006248WS02006247    1.00   0.00  0.00  0.00  0.98  0.00  0.00  0.02  0.37  0.00
  WS02006249WS02006248    1.00   0.00  0.00  0.00  0.45  0.00  0.55  0.00  0.00  0.00
  WS02006251WS02006249    1.00   0.00  0.00  0.00  0.99  0.01  0.00  0.00  0.59  0.00
  WS02006252WS02006251    1.00   0.22  0.29  0.00  0.12  0.00  0.38  0.00  0.00  0.00
  WS02006256WS02006235    1.00   0.00  0.00  0.00  0.95  0.05  0.00  0.00  0.01  0.00
  WSF200WS02003060        1.00   0.00  0.05  0.00  0.36  0.59  0.00  0.00  0.64  0.00
  YS02001580YS02001583    1.00   0.19  0.56  0.00  0.25  0.00  0.00  0.00  0.66  0.00
  YS02001583YS02001586    1.00   0.40  0.30  0.00  0.30  0.00  0.00  0.00  0.66  0.00
  YS02001586YS02001590    1.00   0.13  0.00  0.00  0.46  0.04  0.00  0.38  0.33  0.00
  YS02001590YS02001593    1.00   0.13  0.01  0.00  0.17  0.00  0.69  0.00  0.00  0.00
  YS02001593YS02001596    1.00   0.13  0.00  0.00  0.20  0.01  0.00  0.66  0.03  0.00
  YS02001596YS02001600    1.00   0.13  0.00  0.00  0.24  0.01  0.00  0.61  0.03  0.00
  YS02001600YS02001601    1.00   0.13  0.01  0.00  0.86  0.00  0.00  0.00  0.57  0.00
  YS02001601YS02001602    1.00   0.13  0.01  0.00  0.87  0.00  0.00  0.00  0.00  0.00
  YS02001602YS02001605    1.00   0.13  0.00  0.00  0.87  0.00  0.00  0.00  0.00  0.00
  YS02001605YS02001607    1.00   0.13  0.00  0.00  0.87  0.00  0.00  0.00  0.00  0.00
  YS02001607YS02001610    1.00   0.13  0.00  0.00  0.86  0.00  0.00  0.00  0.01  0.00
  YS02001610YS02001613    1.00   0.13  0.00  0.00  0.87  0.00  0.00  0.00  0.00  0.00
  YS02001613YS02001616    1.00   0.13  0.00  0.00  0.87  0.00  0.00  0.00  0.00  0.00
  YS02001616YS02001619    1.00   0.13  0.00  0.00  0.87  0.00  0.00  0.00  0.00  0.00
  YS02001619YS02001622    1.00   0.13  0.00  0.00  0.87  0.00  0.00  0.00  0.27  0.00
  YS02001622YS02001625    1.00   0.13  0.00  0.00  0.87  0.00  0.00  0.00  0.02  0.00
  YS02001625YS02001629    1.00   0.13  0.03  0.00  0.21  0.00  0.62  0.00  0.00  0.00
  YS02001629YS02163301    1.00   0.14  0.01  0.00  0.85  0.00  0.00  0.00  0.00  0.00
  YS02001633YS02163601    1.00   0.00  0.01  0.00  0.99  0.00  0.00  0.00  0.14  0.00
  YS02001641YS02001644    1.00   0.00  0.01  0.00  0.99  0.00  0.00  0.00  0.00  0.00
  YS02001644YS02001647    1.00   0.00  0.16  0.00  0.84  0.00  0.00  0.00  0.00  0.00
  YS02001647YS02001649    1.00   0.00  0.15  0.00  0.53  0.31  0.00  0.00  0.55  0.00
  YS02001649YS02001757    1.00   0.00  0.00  0.00  0.88  0.12  0.00  0.00  0.71  0.00
  YS02001652YS02001649    1.00   0.00  0.00  0.00  0.98  0.02  0.00  0.00  0.70  0.00
  YS02001655YS02001652    1.00   0.00  0.00  0.00  0.23  0.01  0.00  0.76  0.07  0.00
  YS02001658YS02001655    1.00   0.00  0.14  0.00  0.67  0.19  0.00  0.00  0.69  0.00
  YS02001661YS02001658    1.00   0.14  0.00  0.00  0.49  0.37  0.00  0.00  0.74  0.00
  YS02001664YS02001661    1.00   0.13  0.00  0.00  0.70  0.18  0.00  0.00  0.83  0.00
  YS02001745YS02001748    1.00   0.00  0.00  0.00  0.10  0.02  0.00  0.89  0.07  0.00
  YS02001748YS02001751    1.00   0.00  0.00  0.00  0.82  0.18  0.00  0.00  0.80  0.00
  YS02001751YS02001754    1.00   0.00  0.00  0.00  0.19  0.01  0.00  0.81  0.04  0.00
  YS02001754YS02001757    1.00   0.00  0.00  0.00  1.00  0.00  0.00  0.00  0.79  0.00
  YS02001757CaochengTiaoxuchi    1.00   0.00  0.00  0.00  0.24  0.76  0.00  0.00  0.12  0.00
  YS02001759YS02001757    1.00   0.00  0.00  0.00  1.00  0.00  0.00  0.00  0.61  0.00
  YS02001762YS02001759    1.00   0.00  0.00  0.00  1.00  0.00  0.00  0.00  0.05  0.00
  YS02001765YS02001762    1.00   0.00  0.00  0.00  1.00  0.00  0.00  0.00  0.70  0.00
  YS02001767YS02001765    1.00   0.00  0.00  0.00  1.00  0.00  0.00  0.00  0.00  0.00
  YS02001770YS02001767    1.00   0.00  0.00  0.00  1.00  0.00  0.00  0.00  0.00  0.00
  YS02001774YS02001770    1.00   0.00  0.13  0.00  0.72  0.00  0.15  0.00  0.02  0.00
  YS02001779YS02001774    1.00   0.00  0.00  0.00  1.00  0.00  0.00  0.00  0.75  0.00
  YS02001783YS02001784    1.00   0.00  0.16  0.00  0.84  0.00  0.00  0.00  0.54  0.00
  YS02001784YS02001785    1.00   0.00  0.00  0.00  1.00  0.00  0.00  0.00  0.15  0.00
  YS02001786YS02001788    1.00   0.00  0.00  0.00  0.79  0.21  0.00  0.00  0.00  0.00
  YS02001788YS02001790    1.00   0.00  0.00  0.00  0.22  0.78  0.00  0.00  0.77  0.00
  YS02001790YS02001791    1.00   0.00  0.00  0.00  0.01  0.99  0.00  0.00  0.16  0.00
  YS02001791YS02001793    1.00   0.00  0.00  0.00  0.00  1.00  0.00  0.00  0.02  0.00
  YS02001793JiankangQianchi    1.00   0.00  0.00  0.00  0.00  1.00  0.00  0.00  0.12  0.00
  YS02001882YS02001884    1.00   0.14  0.00  0.00  0.85  0.00  0.00  0.00  0.00  0.00
  YS02001884YS02001887    1.00   0.06  0.05  0.00  0.89  0.00  0.00  0.00  0.00  0.00
  YS02001887YS02001890    1.00   0.00  0.00  0.00  0.97  0.00  0.03  0.00  0.00  0.00
  YS02001890YS02001895    1.00   0.00  0.15  0.00  0.85  0.00  0.00  0.00  0.00  0.00
  YS02001895YS02001898    1.00   0.15  0.00  0.00  0.84  0.00  0.01  0.00  0.00  0.00
  YS02001898YS02001901    1.00   0.15  0.00  0.00  0.85  0.00  0.00  0.00  0.00  0.00
  YS02001901YS02001904    1.00   0.15  0.00  0.00  0.85  0.00  0.00  0.00  0.00  0.00
  YS02001904YS02001907    1.00   0.00  0.15  0.00  0.85  0.00  0.00  0.00  0.00  0.00
  YS02001907YS02006553    1.00   0.00  0.02  0.00  0.98  0.00  0.00  0.00  0.00  0.00
  YS02001910YS02001907    1.00   0.00  0.00  0.00  0.97  0.00  0.00  0.03  0.12  0.00
  YS02001915YS02001910    1.00   0.00  0.00  0.00  0.97  0.03  0.00  0.00  0.12  0.00
  YS02001918YS02001915    1.00   0.00  0.01  0.00  0.98  0.02  0.00  0.00  0.69  0.00
  YS02001920YS02001918    1.00   0.00  0.01  0.00  0.99  0.00  0.00  0.00  0.00  0.00
  YS02001923YS02001920    1.00   0.00  0.00  0.00  1.00  0.00  0.00  0.00  0.88  0.00
  YS02001926YS02001923    1.00   0.00  0.07  0.00  0.10  0.00  0.83  0.00  0.00  0.00
  YS02001929YS02001926    1.00   0.00  0.13  0.00  0.87  0.00  0.00  0.00  0.79  0.00
  YS02006553YS02006556    1.00   0.01  0.00  0.00  0.99  0.00  0.00  0.00  0.03  0.00
  YS02006556YS02006558    1.00   0.00  0.00  0.00  1.00  0.00  0.00  0.00  0.00  0.00
  YS02006558YS02006561    1.00   0.16  0.00  0.00  0.09  0.75  0.00  0.00  0.16  0.00
  YS02006561YS02001783    1.00   0.16  0.00  0.00  0.13  0.71  0.00  0.00  0.63  0.00
  YS02163301YS02001633    1.00   0.00  0.14  0.00  0.86  0.00  0.00  0.00  0.00  0.00
  YS02163601YS02164001    1.00   0.00  0.08  0.00  0.92  0.00  0.00  0.00  0.00  0.00
  YS02164001YS02001641    1.00   0.01  0.08  0.00  0.92  0.00  0.00  0.00  0.05  0.00
  
  
  *************************
  Conduit Surcharge Summary
  *************************
  
  ----------------------------------------------------------------------------
                                                           Hours        Hours 
                         --------- Hours Full --------   Above Full   Capacity
  Conduit                Both Ends  Upstream  Dnstream   Normal Flow   Limited
  ----------------------------------------------------------------------------
  WS02003072WS02003073        0.01      0.01      0.01      1.01         0.01
  WS02004404WS02004405        0.01      0.01      0.01      2.92         0.01
  WS02006109WS02006110        0.01      0.01      2.33      0.01         0.01
  WS02006110WS02006113        0.01      0.01      2.31      0.01         0.01
  WS02006111WS02006112        0.01      0.01      2.37      0.01         0.01
  WS02006112WS02006115        0.01      0.01      0.55      0.01         0.01
  WS02006228WS02006109        2.26      2.33      2.26      2.60         2.26
  WS02006229WS02006228        2.25      2.27      2.25      2.49         2.24
  WS02006230WS02006229        2.40      2.44      2.40      3.48         2.40
  WS02006231WS02006230        0.01      0.01      0.75      3.00         0.01
  WS02006232WS02006231        0.68      0.68      2.35      0.69         0.01
  WS02006234WS02006232        2.22      2.22      2.35      0.05         0.49
  WS02006235WS02006234        1.79      1.80      2.26      2.87         0.38
  WS02006238WS02006235        2.29      2.29      2.37      0.01         0.01
  WS02006239WS02006238        2.31      2.34      2.31      2.47         1.72
  WS02006240WS02006239        2.27      2.29      2.27      2.46         1.81
  WS02006242WS02006240        2.28      2.28      2.41      2.53         0.01
  WS02006243WS02006242        2.30      2.30      2.38      0.01         0.06
  WS02006245WS02006243        2.29      2.30      2.29      2.50         2.06
  WS02006247WS02006245        2.29      2.32      2.29      2.65         2.28
  WS02006248WS02006247        2.29      2.29      2.30      0.01         0.05
  WS02006249WS02006248        2.27      2.27      2.29      2.60         0.01
  WS02006251WS02006249        2.29      2.30      2.29      2.55         2.18
  WS02006252WS02006251        2.68      2.68      2.68      2.68         0.01
  WS02006256WS02006235        2.06      2.92      5.49      0.89         0.21
  YS02001580YS02001583        1.00      1.00      1.03      0.01         0.01
  YS02001583YS02001586        1.01      1.01      1.13      0.01         0.01
  YS02001586YS02001590        1.14      1.14      1.23      0.01         0.01
  YS02001590YS02001593        1.23      1.23      1.25      1.39         0.01
  YS02001593YS02001596        1.24      1.24      1.37      0.01         0.01
  YS02001596YS02001600        1.45      1.45      1.60      0.01         0.01
  YS02001600YS02001601        1.64      1.64      1.82      0.01         0.01
  YS02001601YS02001602        1.75      1.75      1.86      1.62         0.01
  YS02001602YS02001605        1.71      1.71      1.75      2.49         0.01
  YS02001605YS02001607        1.68      1.71      1.68      1.80         1.68
  YS02001607YS02001610        1.14      1.14      1.18      0.01         0.01
  YS02001610YS02001613        1.12      1.12      1.18      0.01         0.01
  YS02001613YS02001616        1.07      1.07      1.12      0.01         0.01
  YS02001616YS02001619        1.05      1.05      1.07      0.16         0.06
  YS02001619YS02001622        1.04      1.05      1.04      1.29         1.03
  YS02001622YS02001625        1.04      1.04      1.30      0.01         0.01
  YS02001625YS02001629        0.91      0.91      1.30      0.01         0.01
  YS02001629YS02163301        1.27      1.27      1.29      0.53         0.50
  YS02001633YS02163601        1.31      1.31      1.35      0.74         0.72
  YS02001641YS02001644        1.10      1.17      1.10      1.87         1.09
  YS02001644YS02001647        0.78      0.78      1.10      0.04         0.01
  YS02001647YS02001649        0.78      0.78      0.91      0.01         0.01
  YS02001649YS02001757        0.91      0.91      0.96      0.56         0.53
  YS02001652YS02001649        0.66      0.66      0.91      0.01         0.01
  YS02001655YS02001652        0.42      0.42      0.62      0.01         0.01
  YS02001658YS02001655        0.31      0.31      0.42      0.01         0.01
  YS02001661YS02001658        0.17      0.17      0.31      0.01         0.01
  YS02001664YS02001661        0.01      0.01      0.20      0.01         0.01
  YS02001745YS02001748        0.01      0.01      0.21      0.01         0.01
  YS02001748YS02001751        0.27      0.27      0.33      0.01         0.01
  YS02001751YS02001754        0.33      0.33      0.43      0.01         0.01
  YS02001754YS02001757        0.46      0.46      0.96      0.01         0.01
  YS02001757CaochengTiaoxuchi        0.44      0.96      1.06      0.72         0.18
  YS02001759YS02001757        0.80      0.80      0.96      0.15         0.15
  YS02001762YS02001759        0.76      0.76      0.80      0.01         0.04
  YS02001765YS02001762        0.69      0.69      0.76      0.01         0.01
  YS02001767YS02001765        0.64      0.64      0.69      0.04         0.06
  YS02001770YS02001767        0.64      0.65      0.64      0.86         0.56
  YS02001774YS02001770        0.60      0.60      0.74      0.01         0.01
  YS02001779YS02001774        0.45      0.45      0.74      0.01         0.01
  YS02001783YS02001784        0.79      0.83      0.79      1.01         0.79
  YS02001784YS02001785        0.66      0.79      0.66      1.41         0.66
  YS02001786YS02001788        0.01      0.67      0.01      1.19         0.01
  YS02001790YS02001791        0.01      0.01      0.01      0.78         0.01
  YS02001882YS02001884        0.75      0.75      0.76      0.01         0.01
  YS02001884YS02001887        0.80      0.80      0.81      0.01         0.01
  YS02001887YS02001890        0.83      0.83      0.84      0.25         0.01
  YS02001890YS02001895        0.74      0.74      0.86      0.01         0.01
  YS02001895YS02001898        0.73      0.73      0.74      0.01         0.01
  YS02001898YS02001901        0.74      0.74      0.79      0.01         0.01
  YS02001901YS02001904        0.78      0.78      0.79      0.01         0.01
  YS02001904YS02001907        0.78      0.78      1.16      0.01         0.01
  YS02001907YS02006553        1.42      1.42      1.53      0.01         0.01
  YS02001910YS02001907        0.86      0.86      1.11      0.14         0.14
  YS02001915YS02001910        0.75      0.75      0.86      0.01         0.02
  YS02001918YS02001915        0.65      0.65      0.75      0.01         0.01
  YS02001920YS02001918        0.65      0.65      0.66      0.01         0.01
  YS02001923YS02001920        0.59      0.59      0.66      0.01         0.01
  YS02001926YS02001923        0.27      0.27      0.30      0.04         0.01
  YS02001929YS02001926        0.16      0.16      0.30      0.01         0.01
  YS02006553YS02006556        0.97      0.97      1.15      0.01         0.01
  YS02006556YS02006558        1.04      1.04      1.18      0.01         0.01
  YS02006558YS02006561        0.69      0.96      0.69      1.33         0.69
  YS02006561YS02001783        0.61      0.61      0.83      0.01         0.01
  YS02163301YS02001633        1.29      1.29      1.34      0.01         0.02
  YS02163601YS02164001        1.19      1.19      1.35      0.39         0.01
  YS02164001YS02001641        1.17      1.19      1.17      1.11         0.91
  
  
  ***************
  Pumping Summary
  ***************
  
  ---------------------------------------------------------------------------------------------------------
                                                  Min       Avg       Max     Total     Power    % Time Off
                        Percent   Number of      Flow      Flow      Flow    Volume     Usage    Pump Curve
  Pump                 Utilized   Start-Ups       LPS       LPS       LPS  10^6 ltr     Kw-hr    Low   High
  ---------------------------------------------------------------------------------------------------------
  CC-R1                   33.89          19      0.00    683.00    683.00     6.597    112.14    0.0   60.3
  CC-R2                   33.89          19      0.00    683.00    683.00     6.597    112.14    0.0   60.3
  CC-S1                   33.89          19      0.00    200.00    200.00     1.932     13.73    0.0   22.8
  CC-S2                   33.89          19      0.00    200.00    200.00     1.932     13.73    0.0   22.8
  JK-R1                   12.54        1454      0.00    934.14   1000.00     2.953      6.81    0.0    0.0
  JK-R2                   12.54        1454      0.00    934.14   1000.00     2.953      6.81    0.0    0.0
  JK-S                    12.54        1454      0.00    296.38    300.00     1.025     23.57    0.0    0.0
  

  Analysis begun on:  Wed Feb 26 11:08:37 2025
  Analysis ended on:  Wed Feb 26 11:08:38 2025
  Total elapsed time: 00:00:01