
  EPA STORM WATER MANAGEMENT MODEL - VERSION 5.2 (Build 5.2.4)
  PYSWMM TOOLKIT API - VERSION v1.0 (2023-11-27)
  ------------------------------------------------------------

  WARNING 04: minimum elevation drop used for Conduit WS02004404WS02004405
  WARNING 03: negative offset ignored for Link YS02001904YS02001907
  
  ****************
  Analysis Options
  ****************
  Flow Units ............... LPS
  Process Models:
    Rainfall/Runoff ........ YES
    RDII ................... NO
    Snowmelt ............... NO
    Groundwater ............ NO
    Flow Routing ........... YES
    Ponding Allowed ........ NO
    Water Quality .......... NO
  Infiltration Method ...... HORTON
  Flow Routing Method ...... DYNWAVE
  Surcharge Method ......... EXTRAN
  Starting Date ............ 08/28/2015 08:00:00
  Ending Date .............. 08/28/2015 16:00:00
  Antecedent Dry Days ...... 8.0
  Report Time Step ......... 00:01:00
  Wet Time Step ............ 00:01:00
  Dry Time Step ............ 00:01:00
  Routing Time Step ........ 30.00 sec
  Variable Time Step ....... YES
  Maximum Trials ........... 8
  Number of Threads ........ 4
  Head Tolerance ........... 0.001500 m
  
  
  **************************        Volume         Depth
  Runoff Quantity Continuity     hectare-m            mm
  **************************     ---------       -------
  Total Precipitation ......         2.238        67.478
  Evaporation Loss .........         0.000         0.000
  Infiltration Loss ........         0.100         3.014
  Surface Runoff ...........         2.106        63.483
  Final Storage ............         0.033         0.996
  Continuity Error (%) .....        -0.021
  
  
  **************************        Volume        Volume
  Flow Routing Continuity        hectare-m      10^6 ltr
  **************************     ---------     ---------
  Dry Weather Inflow .......         0.025         0.248
  Wet Weather Inflow .......         2.105        21.054
  Groundwater Inflow .......         0.000         0.000
  RDII Inflow ..............         0.000         0.000
  External Inflow ..........         0.083         0.825
  External Outflow .........         1.946        19.456
  Flooding Loss ............         0.604         6.035
  Evaporation Loss .........         0.000         0.000
  Exfiltration Loss ........         0.000         0.000
  Initial Stored Volume ....         0.243         2.431
  Final Stored Volume ......         0.040         0.396
  Continuity Error (%) .....        -5.414
  
  
  *************************
  Highest Continuity Errors
  *************************
  Node JK-storage (-27.65%)
  Node WS02006256 (-15.67%)
  Node YS02001884 (5.11%)
  Node YS02001583 (-3.58%)
  
  
  ***************************
  Time-Step Critical Elements
  ***************************
  Link YS02001793JiankangQianchi (40.21%)
  Link WS02006238WS02006235 (30.53%)
  Link WS02004404WS02004405 (6.44%)
  Link WS02003066WSF200 (4.22%)
  Link WS02006235WS02006234 (3.72%)
  
  
  ********************************
  Highest Flow Instability Indexes
  ********************************
  Link WS02006256WS02006235 (58)
  Link WS02006252WS02006251 (46)
  Link WS02006235WS02006234 (40)
  Link WS02006238WS02006235 (39)
  Link WS02006113WS02006111 (33)
  
  
  *********************************
  Most Frequent Nonconverging Nodes
  *********************************
  Node CC-1 (48.90%)
  Node CC-2 (48.90%)
  Node JK-1 (48.90%)
  Node JK-2 (48.90%)
  Node WSC (48.90%)
  
  
  *************************
  Routing Time Step Summary
  *************************
  Minimum Time Step           :     0.01 sec
  Average Time Step           :     2.69 sec
  Maximum Time Step           :     6.43 sec
  % of Time in Steady State   :     0.00
  Average Iterations per Step :     5.53
  % of Steps Not Converging   :    48.90
  Time Step Frequencies       :
     30.000 - 13.228 sec      :     0.00 %
     13.228 -  5.833 sec      :     6.59 %
      5.833 -  2.572 sec      :    36.65 %
      2.572 -  1.134 sec      :    37.62 %
      1.134 -  0.500 sec      :    19.14 %
  
  
  ***************************
  Subcatchment Runoff Summary
  ***************************
  
  ------------------------------------------------------------------------------------------------------------------------------
                            Total      Total      Total      Total     Imperv       Perv      Total       Total     Peak  Runoff
                           Precip      Runon       Evap      Infil     Runoff     Runoff     Runoff      Runoff   Runoff   Coeff
  Subcatchment                 mm         mm         mm         mm         mm         mm         mm    10^6 ltr      LPS
  ------------------------------------------------------------------------------------------------------------------------------
  sub60                     67.48       0.00       0.00       1.81      58.18       6.29      64.46        0.85   569.62   0.955
  sub61                     67.48       0.00       0.00       2.63      54.88       8.85      63.72        1.17   790.33   0.944
  sub62                     67.48       0.00       0.00       1.21      60.79       4.19      64.99        1.78  1115.10   0.963
  sub63                     67.48       0.00       0.00       4.84      46.94      14.73      61.67        1.40   890.37   0.914
  sub64                     67.48       0.00       0.00       2.45      56.15       7.68      63.82        1.53   906.48   0.946
  sub65                     67.48       0.00       0.00       2.12      57.45       6.66      64.11        1.76  1015.99   0.950
  sub66                     67.48       0.00       0.00       6.00      46.83      13.57      60.41        2.82  1333.55   0.895
  sub67                     67.48       0.00       0.00       1.16      60.84       4.24      65.07        1.21   854.20   0.964
  sub68                     67.48       0.00       0.00       2.18      56.84       7.27      64.12        1.76  1143.87   0.950
  sub69                     67.48       0.00       0.00       1.94      57.24       8.19      65.43        2.42  1352.38   0.970
  sub70                     67.48       0.00       0.00       6.47      44.37      16.47      60.84        1.76   749.82   0.902
  sub71                     67.48       0.00       0.00       1.24      60.75       4.16      64.91        1.70   982.11   0.962
  sub72                     67.48       0.00       0.00       1.10      61.35       3.62      64.97        0.89   477.00   0.963
  
  
  ******************
  Node Depth Summary
  ******************
  
  ---------------------------------------------------------------------------------
                                 Average  Maximum  Maximum  Time of Max    Reported
                                   Depth    Depth      HGL   Occurrence   Max Depth
  Node                 Type       Meters   Meters   Meters  days hr:min      Meters
  ---------------------------------------------------------------------------------
  WS02003060           JUNCTION     0.22     0.37     5.30     0  02:18        0.37
  WS02003066           JUNCTION     0.18     0.29     5.84     0  02:18        0.29
  WS02003067           JUNCTION     0.47     0.69     6.01     0  02:18        0.69
  WS02003069           JUNCTION     0.24     0.41     5.00     0  02:19        0.41
  WS02003072           JUNCTION     0.30     0.48     4.85     0  02:20        0.48
  WS02003073           JUNCTION     0.17     0.29     4.35     0  02:21        0.29
  WS02004401           JUNCTION     0.56     0.82     6.82     0  02:20        0.82
  WS02004402           JUNCTION     0.59     0.85     6.81     0  02:20        0.85
  WS02004403           JUNCTION     0.61     0.86     6.79     0  02:20        0.86
  WS02004404           JUNCTION     0.69     0.94     6.79     0  02:21        0.94
  WS02004405           JUNCTION     0.68     0.93     6.78     0  02:21        0.93
  WS02004406           JUNCTION     0.69     0.94     6.77     0  02:21        0.93
  WS02004407           JUNCTION     0.16     0.28     6.60     0  02:16        0.28
  WS02004409           JUNCTION     0.36     0.64     6.41     0  02:16        0.64
  WS02004410           JUNCTION     0.38     0.66     6.38     0  02:17        0.66
  WS02004411           JUNCTION     0.40     0.67     6.35     0  02:17        0.67
  WS02004412           JUNCTION     0.43     0.68     6.32     0  02:18        0.68
  WS02004413           JUNCTION     0.58     0.84     6.31     0  02:18        0.84
  WS02006109           JUNCTION     0.63     0.93     7.55     0  01:56        0.93
  WS02006110           JUNCTION     0.64     0.89     7.48     0  02:01        0.89
  WS02006111           JUNCTION     0.17     0.28     6.98     0  02:05        0.28
  WS02006112           JUNCTION     0.72     1.02     6.91     0  02:21        1.02
  WS02006113           JUNCTION     0.26     0.44     7.33     0  02:06        0.44
  WS02006115           JUNCTION     0.45     0.72     6.86     0  02:20        0.72
  WS02006116           JUNCTION     0.53     0.80     6.84     0  02:20        0.80
  WS02006228           JUNCTION     0.63     0.97     7.62     0  01:56        0.96
  WS02006229           JUNCTION     0.60     0.96     7.66     0  01:56        0.96
  WS02006230           JUNCTION     0.60     1.03     7.77     0  02:01        1.03
  WS02006231           JUNCTION     0.41     0.92     8.04     0  01:59        0.80
  WS02006232           JUNCTION     0.54     1.12     8.16     0  02:10        1.12
  WS02006234           JUNCTION     0.47     1.30     8.46     0  02:10        1.30
  WS02006235           JUNCTION     0.51     1.49     8.65     0  02:41        1.49
  WS02006238           JUNCTION     0.54     1.50     8.64     0  02:42        1.50
  WS02006239           JUNCTION     0.51     1.31     8.52     0  02:02        1.29
  WS02006240           JUNCTION     0.47     1.29     8.59     0  02:02        1.19
  WS02006242           JUNCTION     0.55     1.35     8.62     0  02:02        1.25
  WS02006243           JUNCTION     0.48     1.23     8.65     0  02:02        1.21
  WS02006245           JUNCTION     0.49     1.27     8.75     0  02:01        1.27
  WS02006247           JUNCTION     0.51     1.26     8.76     0  02:01        1.26
  WS02006248           JUNCTION     0.48     1.10     8.69     0  01:57        1.10
  WS02006249           JUNCTION     0.51     1.09     8.69     0  01:55        1.09
  WS02006251           JUNCTION     0.51     1.15     8.82     0  01:55        1.12
  WS02006252           JUNCTION     0.33     1.50     9.74     0  00:00        0.94
  WS02006256           JUNCTION     0.95     2.35     9.28     0  00:00        2.35
  WSF200               JUNCTION     0.15     0.28     5.51     0  02:18        0.28
  YS02001580           JUNCTION     0.17     1.05     9.59     0  01:53        0.78
  YS02001583           JUNCTION     0.20     1.14     9.64     0  01:53        0.82
  YS02001586           JUNCTION     0.31     1.13     9.30     0  01:53        1.13
  YS02001590           JUNCTION     0.43     1.39     9.25     0  02:01        1.39
  YS02001593           JUNCTION     0.36     1.30     9.16     0  01:53        1.28
  YS02001596           JUNCTION     0.49     1.66     9.08     0  01:53        1.65
  YS02001600           JUNCTION     0.59     1.87     9.00     0  01:53        1.86
  YS02001601           JUNCTION     0.78     2.06     8.90     0  01:52        2.06
  YS02001602           JUNCTION     0.67     1.87     8.77     0  01:52        1.87
  YS02001605           JUNCTION     0.62     1.78     8.68     0  01:52        1.77
  YS02001607           JUNCTION     0.57     1.66     8.51     0  01:53        1.64
  YS02001610           JUNCTION     0.61     1.68     8.48     0  01:52        1.68
  YS02001613           JUNCTION     0.57     1.70     8.54     0  01:52        1.67
  YS02001616           JUNCTION     0.51     1.61     8.52     0  01:52        1.60
  YS02001619           JUNCTION     0.48     1.61     8.54     0  01:52        1.61
  YS02001622           JUNCTION     0.47     1.58     8.48     0  01:52        1.57
  YS02001625           JUNCTION     0.71     1.78     8.38     0  01:56        1.78
  YS02001629           JUNCTION     0.61     1.85     8.40     0  01:53        1.85
  YS02001633           JUNCTION     0.68     2.08     8.53     0  02:01        2.08
  YS02001641           JUNCTION     0.63     1.97     8.41     0  01:57        1.96
  YS02001644           JUNCTION     0.62     1.92     8.35     0  01:57        1.92
  YS02001647           JUNCTION     0.39     1.81     8.42     0  01:58        1.73
  YS02001649           JUNCTION     0.43     2.05     8.44     0  01:59        1.95
  YS02001652           JUNCTION     0.31     2.02     8.62     0  01:58        1.79
  YS02001655           JUNCTION     0.22     2.20     9.05     0  01:57        1.57
  YS02001658           JUNCTION     0.17     2.30     9.44     0  01:58        1.33
  YS02001661           JUNCTION     0.19     1.87     9.27     0  01:59        1.11
  YS02001664           JUNCTION     0.09     0.70     8.62     0  01:59        0.60
  YS02001745           JUNCTION     0.09     0.94     8.46     0  01:58        0.93
  YS02001748           JUNCTION     0.15     2.27     9.35     0  01:58        1.31
  YS02001751           JUNCTION     0.18     2.04     8.92     0  01:58        1.47
  YS02001754           JUNCTION     0.25     2.15     8.76     0  01:58        1.69
  YS02001757           JUNCTION     0.43     2.16     8.42     0  01:58        2.00
  YS02001759           JUNCTION     0.37     2.11     8.48     0  01:58        2.03
  YS02001762           JUNCTION     0.36     2.12     8.52     0  01:58        2.02
  YS02001765           JUNCTION     0.34     2.08     8.53     0  01:58        1.94
  YS02001767           JUNCTION     0.33     2.02     8.51     0  01:58        1.91
  YS02001770           JUNCTION     0.35     1.95     8.44     0  01:58        1.95
  YS02001774           JUNCTION     0.41     2.00     8.42     0  01:58        1.99
  YS02001779           JUNCTION     0.24     1.68     8.37     0  01:57        1.68
  YS02001783           JUNCTION     0.36     1.39     7.53     0  01:56        1.23
  YS02001784           JUNCTION     0.36     1.20     7.26     0  01:56        1.12
  YS02001786           JUNCTION     0.30     0.95     6.98     0  01:56        0.87
  YS02001788           JUNCTION     0.22     0.62     6.60     0  02:00        0.62
  YS02001790           JUNCTION     0.25     0.73     6.37     0  02:00        0.72
  YS02001791           JUNCTION     0.16     0.44     5.91     0  02:00        0.43
  YS02001793           JUNCTION     0.09     0.26     5.09     0  02:00        0.25
  YS02001882           JUNCTION     0.44     1.83     8.55     0  01:55        1.67
  YS02001884           JUNCTION     0.53     1.93     8.55     0  01:55        1.78
  YS02001887           JUNCTION     0.60     1.94     8.48     0  01:55        1.86
  YS02001890           JUNCTION     0.63     1.81     8.32     0  01:55        1.81
  YS02001895           JUNCTION     0.41     1.57     8.31     0  02:02        1.56
  YS02001898           JUNCTION     0.42     1.56     8.30     0  01:56        1.56
  YS02001901           JUNCTION     0.52     1.68     8.29     0  01:57        1.68
  YS02001904           JUNCTION     0.50     1.64     8.27     0  02:01        1.64
  YS02001907           JUNCTION     0.81     1.96     8.25     0  01:56        1.96
  YS02001910           JUNCTION     0.62     2.00     8.51     0  01:57        1.96
  YS02001915           JUNCTION     0.45     1.95     8.67     0  01:57        1.90
  YS02001918           JUNCTION     0.28     1.81     8.88     0  01:57        1.54
  YS02001920           JUNCTION     0.36     2.14     9.15     0  01:57        1.58
  YS02001923           JUNCTION     0.22     2.03     9.29     0  01:57        1.31
  YS02001926           JUNCTION     0.24     1.90     9.35     0  01:57        1.13
  YS02001929           JUNCTION     0.15     1.78     9.47     0  01:57        0.89
  YS02006553           JUNCTION     0.81     1.99     8.28     0  01:56        1.98
  YS02006556           JUNCTION     0.78     2.01     8.32     0  02:01        2.01
  YS02006558           JUNCTION     0.82     2.11     8.37     0  02:01        2.11
  YS02006561           JUNCTION     0.23     1.09     7.75     0  01:56        0.90
  YS02163301           JUNCTION     0.63     1.95     8.47     0  02:01        1.95
  YS02163601           JUNCTION     0.70     2.08     8.48     0  01:57        2.05
  YS02164001           JUNCTION     0.62     1.99     8.45     0  01:57        1.95
  CC-1                 OUTFALL      0.00     0.00     0.00     0  00:00        0.00
  CC-2                 OUTFALL      0.00     0.00     0.00     0  00:00        0.00
  JK-1                 OUTFALL      0.00     0.00     0.00     0  00:00        0.00
  JK-2                 OUTFALL      0.00     0.00     0.00     0  00:00        0.00
  WSC                  OUTFALL      0.17     0.29     0.96     0  02:21        0.29
  CC-storage           STORAGE      0.25     0.90     6.40     0  02:34        0.90
  JK-storage           STORAGE      0.02     2.99     3.79     0  00:00        0.68
  
  
  *******************
  Node Inflow Summary
  *******************
  
  -------------------------------------------------------------------------------------------------
                                  Maximum  Maximum                  Lateral       Total        Flow
                                  Lateral    Total  Time of Max      Inflow      Inflow     Balance
                                   Inflow   Inflow   Occurrence      Volume      Volume       Error
  Node                 Type           LPS      LPS  days hr:min    10^6 ltr    10^6 ltr     Percent
  -------------------------------------------------------------------------------------------------
  WS02003060           JUNCTION     16.53   515.06     0  02:18       0.471        4.28       0.055
  WS02003066           JUNCTION      0.00   498.46     0  02:18           0        3.82       0.040
  WS02003067           JUNCTION      0.00   498.41     0  02:18           0        3.82       0.111
  WS02003069           JUNCTION      0.32   515.30     0  02:19     0.00912        4.29       0.101
  WS02003072           JUNCTION      0.00   515.18     0  02:20           0        4.29       0.178
  WS02003073           JUNCTION      1.82   516.96     0  02:20      0.0519        4.33       0.139
  WS02004401           JUNCTION      0.00   500.12     0  02:20           0        3.93       0.273
  WS02004402           JUNCTION      0.00   499.78     0  02:20           0        3.91       0.275
  WS02004403           JUNCTION      0.00   499.33     0  02:20           0         3.9       0.268
  WS02004404           JUNCTION      0.16   499.40     0  02:21     0.00462         3.9       0.223
  WS02004405           JUNCTION      0.04   499.40     0  02:21     0.00109        3.89       0.327
  WS02004406           JUNCTION      0.00   499.39     0  02:21           0        3.88       0.555
  WS02004407           JUNCTION      0.00   498.98     0  02:21           0        3.86       0.033
  WS02004409           JUNCTION      0.00   498.79     0  02:16           0        3.86       0.076
  WS02004410           JUNCTION      0.00   498.76     0  02:16           0        3.85       0.125
  WS02004411           JUNCTION      0.00   498.61     0  02:17           0        3.85       0.154
  WS02004412           JUNCTION      0.00   498.58     0  02:17           0        3.84       0.203
  WS02004413           JUNCTION      0.00   498.61     0  02:17           0        3.83       0.374
  WS02006109           JUNCTION      1.23   501.28     0  02:05      0.0351        3.98       0.277
  WS02006110           JUNCTION      0.00   501.06     0  02:05           0        3.97       0.186
  WS02006111           JUNCTION      0.00   518.23     0  01:59           0        3.96       0.034
  WS02006112           JUNCTION      0.00   503.74     0  02:05           0        3.96       0.528
  WS02006113           JUNCTION      0.00   502.66     0  01:56           0        3.96       0.047
  WS02006115           JUNCTION      0.00   507.65     0  02:21           0        3.94       0.191
  WS02006116           JUNCTION      0.00   501.17     0  02:20           0        3.93       0.084
  WS02006228           JUNCTION      0.00   500.67     0  02:05           0        3.95       0.128
  WS02006229           JUNCTION      0.00   499.91     0  02:05           0        3.95       0.130
  WS02006230           JUNCTION     10.28   513.56     0  02:10       0.293        3.96       0.162
  WS02006231           JUNCTION      0.00   509.24     0  01:55           0        3.67       0.080
  WS02006232           JUNCTION      0.00   507.44     0  01:55           0        3.68       0.196
  WS02006234           JUNCTION      0.00   514.12     0  01:55           0        3.66      -0.345
  WS02006235           JUNCTION      0.00   518.51     0  01:55           0        3.85       0.260
  WS02006238           JUNCTION      0.00   417.58     0  02:40           0        3.22       0.222
  WS02006239           JUNCTION      0.00   415.57     0  02:40           0        3.08      -0.106
  WS02006240           JUNCTION      0.00   413.20     0  02:40           0        3.04      -0.052
  WS02006242           JUNCTION      0.00   412.73     0  02:36           0        3.03      -0.018
  WS02006243           JUNCTION      0.00   413.45     0  02:40           0        3.03      -0.191
  WS02006245           JUNCTION      0.00   417.27     0  01:50           0        3.04       0.506
  WS02006247           JUNCTION      0.00   424.99     0  01:52           0        3.04      -0.055
  WS02006248           JUNCTION      0.00   416.27     0  02:40           0        3.03      -0.247
  WS02006249           JUNCTION      0.00   459.02     0  00:00           0        3.08       0.864
  WS02006251           JUNCTION      0.08   405.88     0  01:45     0.00219        3.08       0.013
  WS02006252           JUNCTION      0.00   400.00     0  00:00           0        3.06      -0.542
  WS02006256           JUNCTION      0.00   300.00     0  00:00           0       0.877     -13.551
  WSF200               JUNCTION      0.00   498.44     0  02:18           0        3.81       0.015
  YS02001580           JUNCTION      0.00   125.82     0  01:53           0     0.00415      -2.595
  YS02001583           JUNCTION      0.00   162.38     0  01:53           0      0.0153      -3.461
  YS02001586           JUNCTION    749.82   749.82     0  02:04        1.76        1.77       0.072
  YS02001590           JUNCTION      0.00   317.81     0  02:01           0        1.36      -0.028
  YS02001593           JUNCTION      0.00   317.84     0  01:59           0        1.36       0.016
  YS02001596           JUNCTION      0.00   317.85     0  02:01           0        1.36       0.006
  YS02001600           JUNCTION      0.00   317.88     0  02:06           0        1.36       0.021
  YS02001601           JUNCTION   1352.38  1669.86     0  02:03        2.42        3.79       0.025
  YS02001602           JUNCTION      0.00   517.45     0  01:52           0        2.35       0.023
  YS02001605           JUNCTION      0.00   516.76     0  01:52           0        2.25       0.028
  YS02001607           JUNCTION      0.00   516.21     0  01:52           0        2.25       0.091
  YS02001610           JUNCTION      0.00   734.83     0  02:04           0         2.5       0.098
  YS02001613           JUNCTION      0.00   521.09     0  01:52           0        2.07       0.086
  YS02001616           JUNCTION      0.00   521.42     0  01:52           0        2.07       0.024
  YS02001619           JUNCTION   1333.55  1333.55     0  02:04        2.82        4.63       0.000
  YS02001622           JUNCTION      0.00   973.61     0  02:22           0        4.39       0.003
  YS02001625           JUNCTION      0.00  1346.05     0  02:04           0        4.57       0.197
  YS02001629           JUNCTION      0.00   973.76     0  02:22           0        3.79       0.023
  YS02001633           JUNCTION   1016.19  1383.04     0  01:56        1.77        5.32       0.068
  YS02001641           JUNCTION      0.00  1381.41     0  01:56           0         5.1       0.057
  YS02001644           JUNCTION    906.52  1798.80     0  01:56        1.53        6.63       0.052
  YS02001647           JUNCTION      0.00  1799.18     0  01:56           0        6.25       0.006
  YS02001649           JUNCTION      0.00  2065.25     0  01:56           0        7.66       0.005
  YS02001652           JUNCTION      0.00   911.24     0  02:02           0         1.4      -0.075
  YS02001655           JUNCTION      0.15   911.20     0  02:02     0.00439         1.4       0.019
  YS02001658           JUNCTION      0.00   910.71     0  02:02           0         1.4      -0.050
  YS02001661           JUNCTION      0.00   910.78     0  02:02           0         1.4       0.029
  YS02001664           JUNCTION    890.37   890.37     0  02:02         1.4         1.4      -0.008
  YS02001745           JUNCTION    569.62   569.62     0  02:02       0.847       0.847       0.103
  YS02001748           JUNCTION      0.04   581.48     0  02:01     0.00128       0.849      -0.184
  YS02001751           JUNCTION      0.01   579.82     0  02:00    0.000313       0.856       0.054
  YS02001754           JUNCTION      0.26   580.54     0  02:00     0.00741       0.869      -0.076
  YS02001757           JUNCTION      0.00  3388.05     0  02:06           0        11.3       0.030
  YS02001759           JUNCTION    790.37  1369.55     0  02:01        1.17        2.79      -0.006
  YS02001762           JUNCTION      0.00   811.98     0  02:07           0        1.62       0.013
  YS02001765           JUNCTION      0.00   811.92     0  02:07           0        1.62      -0.007
  YS02001767           JUNCTION      0.54   811.17     0  02:07      0.0152        1.62       0.016
  YS02001770           JUNCTION   1115.26  1115.26     0  02:02        1.78        1.83      -0.011
  YS02001774           JUNCTION      0.00   542.46     0  02:02           0       0.239       0.491
  YS02001779           JUNCTION      0.01   542.21     0  02:02    0.000142       0.197      -0.262
  YS02001783           JUNCTION      0.00  1166.20     0  02:00           0        4.13       0.008
  YS02001784           JUNCTION      1.06  1167.16     0  02:00      0.0302        4.16       0.013
  YS02001786           JUNCTION      0.06  1167.65     0  02:00      0.0016        4.17       0.018
  YS02001788           JUNCTION      0.07  1168.07     0  02:01     0.00202        4.17       0.007
  YS02001790           JUNCTION      0.15  1180.90     0  02:00     0.00442        4.17      -0.001
  YS02001791           JUNCTION      0.00  1294.38     0  02:00           0        4.17       0.001
  YS02001793           JUNCTION      0.00  1252.93     0  02:00           0        4.17       0.011
  YS02001882           JUNCTION      0.00    61.77     0  01:54           0      0.0126       5.011
  YS02001884           JUNCTION      0.00    87.57     0  01:54           0      0.0483       5.386
  YS02001887           JUNCTION    854.65   857.98     0  02:01        1.22        1.26       0.355
  YS02001890           JUNCTION      0.00   857.29     0  02:01           0        1.22       0.427
  YS02001895           JUNCTION      0.00   517.12     0  02:05           0         1.1       0.150
  YS02001898           JUNCTION      0.00   517.08     0  02:05           0         1.1       0.023
  YS02001901           JUNCTION      0.00   517.10     0  02:05           0         1.1       0.307
  YS02001904           JUNCTION      0.00   516.96     0  02:05           0         1.1       0.262
  YS02001907           JUNCTION      0.00  1994.16     0  02:02           0        3.77       0.482
  YS02001910           JUNCTION      0.00  1478.16     0  02:02           0        2.67       0.270
  YS02001915           JUNCTION    982.13  1477.73     0  02:02         1.7        2.71       0.061
  YS02001918           JUNCTION      0.00   496.48     0  02:02           0        1.04       0.034
  YS02001920           JUNCTION      2.87   496.34     0  02:02      0.0818        1.03       0.094
  YS02001923           JUNCTION      0.04   491.97     0  02:02     0.00107       0.928      -0.050
  YS02001926           JUNCTION      0.05   545.91     0  01:56     0.00149       0.906      -0.026
  YS02001929           JUNCTION    477.00   477.00     0  02:03       0.893       0.895      -0.028
  YS02006553           JUNCTION      0.00   796.28     0  02:19           0        2.39       0.501
  YS02006556           JUNCTION      0.00   796.25     0  02:19           0         2.4       0.343
  YS02006558           JUNCTION   1144.75  1178.45     0  01:56        1.79        4.17       0.081
  YS02006561           JUNCTION      0.00  1179.31     0  01:56           0        4.13       0.003
  YS02163301           JUNCTION      0.00   973.63     0  02:22           0        3.78       0.045
  YS02163601           JUNCTION      0.11  1382.73     0  01:56     0.00313         5.1       0.100
  YS02164001           JUNCTION      0.00  1382.65     0  01:56           0         5.1       0.049
  CC-1                 OUTFALL       0.00   683.00     0  00:00           0        5.23       0.000
  CC-2                 OUTFALL       0.00   683.00     0  00:00           0        5.23       0.000
  JK-1                 OUTFALL       0.00  1000.00     0  00:00           0        2.33       0.000
  JK-2                 OUTFALL       0.00  1000.00     0  00:00           0        2.33       0.000
  WSC                  OUTFALL       0.00   516.90     0  02:21           0        4.32       0.000
  CC-storage           STORAGE       0.00  3387.10     0  02:06           0        13.5      -0.336
  JK-storage           STORAGE       0.00  1306.96     0  02:00           0        4.32     -21.659
  
  
  **********************
  Node Surcharge Summary
  **********************
  
  Surcharging occurs when water rises above the top of the highest conduit.
  ---------------------------------------------------------------------
                                               Max. Height   Min. Depth
                                   Hours       Above Crown    Below Rim
  Node                 Type      Surcharged         Meters       Meters
  ---------------------------------------------------------------------
  WS02006109           JUNCTION        1.62          0.113        1.707
  WS02006112           JUNCTION        0.39          0.025        1.655
  WS02006228           JUNCTION        1.60          0.139        2.061
  WS02006229           JUNCTION        1.63          0.163        2.287
  WS02006231           JUNCTION        0.50          0.208        1.322
  WS02006232           JUNCTION        1.70          0.424        1.056
  WS02006234           JUNCTION        1.28          0.579        0.661
  WS02006235           JUNCTION        1.62          0.780        0.510
  WS02006238           JUNCTION        1.66          0.777        0.653
  WS02006239           JUNCTION        1.63          0.567        0.723
  WS02006240           JUNCTION        1.63          0.583        0.807
  WS02006242           JUNCTION        1.73          0.619        0.201
  WS02006243           JUNCTION        1.64          0.522        0.248
  WS02006245           JUNCTION        1.64          0.555        0.295
  WS02006247           JUNCTION        1.66          0.552        0.208
  WS02006248           JUNCTION        1.63          0.380        0.000
  WS02006249           JUNCTION        1.65          0.390        0.000
  WS02006251           JUNCTION        0.65          0.116        1.064
  WS02006252           JUNCTION        2.12          1.100        0.000
  WS02006256           JUNCTION        6.58          2.050        0.000
  YS02001580           JUNCTION        0.65          0.450        0.000
  YS02001583           JUNCTION        0.65          0.500        0.000
  YS02001586           JUNCTION        0.75          0.510        0.000
  YS02001590           JUNCTION        0.83          0.740        0.010
  YS02001593           JUNCTION        0.83          0.680        0.160
  YS02001596           JUNCTION        0.94          0.930        0.140
  YS02001600           JUNCTION        1.11          1.186        0.004
  YS02001601           JUNCTION        1.47          1.440        0.000
  YS02001602           JUNCTION        1.38          1.270        0.000
  YS02001605           JUNCTION        1.33          1.180        0.000
  YS02001607           JUNCTION        0.75          0.660        0.020
  YS02001610           JUNCTION        0.78          0.680        0.000
  YS02001613           JUNCTION        0.74          0.700        0.000
  YS02001616           JUNCTION        0.70          0.610        0.000
  YS02001619           JUNCTION        0.68          0.610        0.000
  YS02001622           JUNCTION        0.67          0.578        0.042
  YS02001625           JUNCTION        0.88          0.780        0.000
  YS02001629           JUNCTION        0.56          0.470        0.000
  YS02001633           JUNCTION        0.89          1.059        0.001
  YS02001641           JUNCTION        0.76          0.974        0.126
  YS02001644           JUNCTION        0.68          0.920        0.000
  YS02001647           JUNCTION        0.42          0.806        0.094
  YS02001649           JUNCTION        0.46          1.050        0.000
  YS02001652           JUNCTION        0.33          0.991        0.139
  YS02001655           JUNCTION        0.26          1.199        0.001
  YS02001658           JUNCTION        0.18          1.300        0.000
  YS02001661           JUNCTION        0.04          0.798        0.592
  YS02001748           JUNCTION        0.11          1.190        0.000
  YS02001751           JUNCTION        0.20          1.040        0.160
  YS02001754           JUNCTION        0.26          1.104        0.046
  YS02001757           JUNCTION        0.44          1.157        0.053
  YS02001759           JUNCTION        0.39          1.113        0.097
  YS02001762           JUNCTION        0.37          1.124        0.026
  YS02001765           JUNCTION        0.35          1.082        0.018
  YS02001767           JUNCTION        0.33          1.019        0.011
  YS02001770           JUNCTION        0.33          0.920        0.000
  YS02001774           JUNCTION        0.37          1.001        0.049
  YS02001779           JUNCTION        0.28          0.680        0.000
  YS02001783           JUNCTION        0.57          0.590        1.010
  YS02001784           JUNCTION        0.54          0.395        1.095
  YS02001786           JUNCTION        0.43          0.150        1.280
  YS02001882           JUNCTION        0.51          0.830        0.000
  YS02001884           JUNCTION        0.52          0.870        0.000
  YS02001887           JUNCTION        0.56          0.888        0.062
  YS02001890           JUNCTION        0.57          0.760        0.000
  YS02001895           JUNCTION        0.50          0.567        0.183
  YS02001898           JUNCTION        0.49          0.534        0.206
  YS02001901           JUNCTION        0.54          0.677        0.193
  YS02001904           JUNCTION        0.53          0.644        0.206
  YS02001907           JUNCTION        0.79          0.950        0.000
  YS02001910           JUNCTION        0.60          1.004        0.096
  YS02001915           JUNCTION        0.51          0.952        0.048
  YS02001918           JUNCTION        0.42          0.810        0.000
  YS02001920           JUNCTION        0.44          1.140        0.000
  YS02001923           JUNCTION        0.12          0.820        0.000
  YS02001926           JUNCTION        0.15          0.900        0.000
  YS02001929           JUNCTION        0.01          0.780        0.000
  YS02006553           JUNCTION        0.81          0.992        0.198
  YS02006556           JUNCTION        0.69          0.967        0.383
  YS02006558           JUNCTION        0.68          1.007        0.393
  YS02006561           JUNCTION        0.39          0.288        0.862
  YS02163301           JUNCTION        0.87          0.950        0.080
  YS02163601           JUNCTION        0.92          1.080        0.000
  YS02164001           JUNCTION        0.78          0.987        0.113
  
  
  *********************
  Node Flooding Summary
  *********************
  
  Flooding refers to all water that overflows a node, whether it ponds or not.
  --------------------------------------------------------------------------
                                                             Total   Maximum
                                 Maximum   Time of Max       Flood    Ponded
                        Hours       Rate    Occurrence      Volume     Depth
  Node                 Flooded       LPS   days hr:min    10^6 ltr    Meters
  --------------------------------------------------------------------------
  WS02006248              0.01      3.13      0  02:33       0.000     0.000
  WS02006249              0.53     22.40      0  02:02       0.020     0.000
  WS02006252              0.01    280.98      0  01:48       0.002     0.000
  WS02006256              0.85    293.19      0  00:00       0.346     0.000
  YS02001580              0.01    103.77      0  01:53       0.000     0.000
  YS02001583              0.01     72.22      0  01:53       0.000     0.000
  YS02001586              0.52    432.31      0  02:04       0.393     0.000
  YS02001601              0.66   1272.01      0  02:03       1.432     0.000
  YS02001602              0.48     61.91      0  02:05       0.097     0.000
  YS02001605              0.01      4.85      0  01:53       0.000     0.000
  YS02001610              0.43    734.65      0  02:04       0.676     0.000
  YS02001613              0.01     10.18      0  01:52       0.000     0.000
  YS02001616              0.01     19.96      0  01:52       0.000     0.000
  YS02001619              0.01     42.16      0  01:52       0.000     0.000
  YS02001625              0.35   1346.02      0  02:04       0.992     0.000
  YS02001629              0.12    214.84      0  02:00       0.052     0.000
  YS02001644              0.17    973.75      0  02:02       0.368     0.000
  YS02001649              0.01     15.14      0  01:59       0.000     0.000
  YS02001658              0.01    254.84      0  01:58       0.000     0.000
  YS02001748              0.01    258.71      0  01:58       0.000     0.000
  YS02001770              0.01     17.23      0  01:58       0.000     0.000
  YS02001779              0.16    542.17      0  02:02       0.180     0.000
  YS02001882              0.01     15.84      0  01:55       0.000     0.000
  YS02001884              0.01      9.87      0  01:55       0.000     0.000
  YS02001890              0.18    342.44      0  02:01       0.112     0.000
  YS02001907              0.37   1961.39      0  02:02       1.365     0.000
  YS02001918              0.01    147.75      0  01:57       0.002     0.000
  YS02001920              0.01     17.94      0  01:57       0.000     0.000
  YS02001923              0.01    220.32      0  01:57       0.001     0.000
  YS02001926              0.01    299.12      0  01:57       0.001     0.000
  YS02001929              0.01    259.06      0  01:57       0.001     0.000
  YS02163601              0.01      3.67      0  01:57       0.000     0.000
  
  
  **********************
  Storage Volume Summary
  **********************
  
  ------------------------------------------------------------------------------------------------
                         Average    Avg   Evap  Exfil     Maximum    Max    Time of Max    Maximum
                          Volume   Pcnt   Pcnt   Pcnt      Volume   Pcnt     Occurrence    Outflow
  Storage Unit           1000 m³   Full   Loss   Loss     1000 m³   Full    days hr:min        LPS
  ------------------------------------------------------------------------------------------------
  CC-storage               0.705   11.0    0.0    0.0       2.498   39.0       0  02:34    1783.53
  JK-storage               0.001    0.3    0.0    0.0       0.150   51.6       0  00:00    2300.00
  
  
  ***********************
  Outfall Loading Summary
  ***********************
  
  -----------------------------------------------------------
                         Flow       Avg       Max       Total
                         Freq      Flow      Flow      Volume
  Outfall Node           Pcnt       LPS       LPS    10^6 ltr
  -----------------------------------------------------------
  CC-1                  50.08    683.00    683.00       5.231
  CC-2                  50.08    683.00    683.00       5.231
  JK-1                  18.37    906.04   1000.00       2.334
  JK-2                  18.37    906.04   1000.00       2.334
  WSC                   99.94    222.60    516.90       4.325
  -----------------------------------------------------------
  System                47.37   3400.67   3882.90      19.456
  
  
  ********************
  Link Flow Summary
  ********************
  
  -----------------------------------------------------------------------------
                                 Maximum  Time of Max   Maximum    Max/    Max/
                                  |Flow|   Occurrence   |Veloc|    Full    Full
  Link                 Type          LPS  days hr:min     m/sec    Flow   Depth
  -----------------------------------------------------------------------------
  1                    CONDUIT    516.90     0  02:21      2.77    0.18    0.29
  WS02003060WS02003069 CONDUIT    514.98     0  02:19      1.61    0.20    0.33
  WS02003066WSF200     CONDUIT    498.44     0  02:18      2.80    0.08    0.21
  WS02003067WS02003066 CONDUIT    498.46     0  02:18      1.16    0.16    0.41
  WS02003069WS02003072 CONDUIT    515.18     0  02:20      1.34    0.25    0.37
  WS02003072WS02003073 CONDUIT    515.14     0  02:20      1.40    1.11    0.36
  WS02004401WS02004402 CONDUIT    499.78     0  02:20      1.22    0.60    0.83
  WS02004402WS02004403 CONDUIT    499.33     0  02:20      1.24    0.72    0.86
  WS02004403WS02004404 CONDUIT    499.24     0  02:21      1.24    0.36    0.90
  WS02004404WS02004405 CONDUIT    499.36     0  02:21      1.45    4.89    0.93
  WS02004405WS02004406 CONDUIT    499.39     0  02:21      1.46    0.99    0.93
  WS02004406WS02004407 CONDUIT    498.98     0  02:21      1.00    0.22    0.61
  WS02004407WS02004409 CONDUIT    498.79     0  02:16      1.59    0.18    0.46
  WS02004409WS02004410 CONDUIT    498.76     0  02:16      1.06    0.65    0.65
  WS02004410WS02004411 CONDUIT    498.61     0  02:17      1.12    0.68    0.66
  WS02004411WS02004412 CONDUIT    498.58     0  02:17      1.22    0.71    0.67
  WS02004412WS02004413 CONDUIT    498.61     0  02:17      1.22    0.33    0.76
  WS02004413WS02003067 CONDUIT    498.41     0  02:18      1.07    0.21    0.58
  WS02006109WS02006110 CONDUIT    501.06     0  02:05      1.00    0.96    0.99
  WS02006110WS02006113 CONDUIT    502.66     0  01:56      1.21    0.46    0.77
  WS02006111WS02006112 CONDUIT    503.74     0  02:05      1.95    0.24    0.67
  WS02006112WS02006115 CONDUIT    507.65     0  02:21      0.82    0.30    0.85
  WS02006113WS02006111 CONDUIT    518.23     0  01:59      2.40    0.62    0.44
  WS02006115WS02006116 CONDUIT    501.17     0  02:20      1.29    0.64    0.73
  WS02006116WS02004401 CONDUIT    500.12     0  02:20      1.21    0.69    0.81
  WS02006228WS02006109 CONDUIT    500.05     0  02:05      1.06    2.18    1.00
  WS02006229WS02006228 CONDUIT    500.67     0  02:05      1.12    1.66    1.00
  WS02006230WS02006229 CONDUIT    499.91     0  02:05      1.30   11.13    1.00
  WS02006231WS02006230 CONDUIT    503.28     0  02:10      1.39    7.63    0.96
  WS02006232WS02006231 CONDUIT    509.24     0  01:55      1.33    1.07    1.00
  WS02006234WS02006232 CONDUIT    507.44     0  01:55      1.39    1.03    1.00
  WS02006235WS02006234 CONDUIT    514.12     0  01:55      1.34    5.42    1.00
  WS02006238WS02006235 CONDUIT    418.98     0  02:36      1.45    0.94    1.00
  WS02006239WS02006238 CONDUIT    417.58     0  02:40      1.11    1.34    1.00
  WS02006240WS02006239 CONDUIT    415.57     0  02:40      1.24    1.31    1.00
  WS02006242WS02006240 CONDUIT    413.20     0  02:40      1.16    1.64    1.00
  WS02006243WS02006242 CONDUIT    412.73     0  02:36      1.38    0.88    1.00
  WS02006245WS02006243 CONDUIT    413.45     0  02:40      1.44    1.22    1.00
  WS02006247WS02006245 CONDUIT    417.27     0  01:50      1.43    3.31    1.00
  WS02006248WS02006247 CONDUIT    424.99     0  01:52      1.42    0.93    1.00
  WS02006249WS02006248 CONDUIT    416.27     0  02:40      1.36    2.28    1.00
  WS02006251WS02006249 CONDUIT    459.02     0  00:00      2.11    1.32    1.00
  WS02006252WS02006251 CONDUIT    405.80     0  01:45     29.26    1.49    1.00
  WS02006256WS02006235 CONDUIT    288.91     0  00:00      4.23    3.06    1.00
  WSF200WS02003060     CONDUIT    498.53     0  02:18      2.02    0.11    0.27
  YS02001580YS02001583 CONDUIT    125.82     0  01:53      0.66    0.49    1.00
  YS02001583YS02001586 CONDUIT    158.06     0  01:53      0.67    0.24    1.00
  YS02001586YS02001590 CONDUIT    317.81     0  02:01      1.27    0.56    1.00
  YS02001590YS02001593 CONDUIT    317.84     0  01:59      1.12    2.00    1.00
  YS02001593YS02001596 CONDUIT    317.85     0  02:01      1.76    0.50    1.00
  YS02001596YS02001600 CONDUIT    317.88     0  02:06      1.24    0.62    1.00
  YS02001600YS02001601 CONDUIT    317.83     0  02:06      1.12    0.55    1.00
  YS02001601YS02001602 CONDUIT    517.45     0  01:52      1.83    1.87    1.00
  YS02001602YS02001605 CONDUIT    516.76     0  01:52      1.83   10.94    1.00
  YS02001605YS02001607 CONDUIT    516.21     0  01:52      1.83    2.83    1.00
  YS02001607YS02001610 CONDUIT    517.79     0  01:52      0.66    0.49    1.00
  YS02001610YS02001613 CONDUIT    521.09     0  01:52      0.66    0.60    1.00
  YS02001613YS02001616 CONDUIT    521.42     0  01:52      0.67    0.45    1.00
  YS02001616YS02001619 CONDUIT    511.63     0  02:32      0.67    0.89    1.00
  YS02001619YS02001622 CONDUIT    973.61     0  02:22      1.24    1.43    1.00
  YS02001622YS02001625 CONDUIT    973.59     0  02:22      1.24    0.52    1.00
  YS02001625YS02001629 CONDUIT    973.76     0  02:22      1.24    0.46    1.00
  YS02001629YS02163301 CONDUIT    973.63     0  02:22      1.24    1.20    1.00
  YS02001633YS02163601 CONDUIT   1382.62     0  01:56      1.76    1.45    1.00
  YS02001641YS02001644 CONDUIT   1380.62     0  01:56      1.76    4.46    1.00
  YS02001644YS02001647 CONDUIT   1799.18     0  01:56      2.29    1.06    1.00
  YS02001647YS02001649 CONDUIT   1818.99     0  01:56      2.32    0.96    1.00
  YS02001649YS02001757 CONDUIT   2068.03     0  01:56      2.64    1.25    1.00
  YS02001652YS02001649 CONDUIT    911.00     0  02:02      1.16    0.45    1.00
  YS02001655YS02001652 CONDUIT    911.24     0  02:02      1.31    0.44    1.00
  YS02001658YS02001655 CONDUIT    911.04     0  02:02      1.88    0.39    1.00
  YS02001661YS02001658 CONDUIT    910.71     0  02:02      2.32    0.36    1.00
  YS02001664YS02001661 CONDUIT    910.78     0  02:02      2.34    0.29    0.85
  YS02001745YS02001748 CONDUIT    581.44     0  02:01      2.20    0.22    0.97
  YS02001748YS02001751 CONDUIT    579.81     0  02:00      1.69    0.29    1.00
  YS02001751YS02001754 CONDUIT    580.28     0  02:00      1.37    0.28    1.00
  YS02001754YS02001757 CONDUIT    580.14     0  02:00      0.74    0.23    1.00
  YS02001757CaochengTiaoxuchi CONDUIT   3387.10     0  02:06      7.11    1.47    0.90
  YS02001759YS02001757 CONDUIT   1370.35     0  02:01      1.74    0.97    1.00
  YS02001762YS02001759 CONDUIT    812.35     0  02:07      1.03    0.94    1.00
  YS02001765YS02001762 CONDUIT    811.98     0  02:07      1.03    0.76    1.00
  YS02001767YS02001765 CONDUIT    811.92     0  02:07      1.03    1.02    1.00
  YS02001770YS02001767 CONDUIT    810.64     0  02:07      1.03    3.21    1.00
  YS02001774YS02001770 CONDUIT    542.46     0  02:02      0.69    0.35    1.00
  YS02001779YS02001774 CONDUIT    542.20     0  02:02      0.69    0.27    1.00
  YS02001783YS02001784 CONDUIT   1166.10     0  02:00      2.32    1.61    1.00
  YS02001784YS02001785 CONDUIT   1167.59     0  02:00      2.32    2.72    1.00
  YS02001786YS02001788 CONDUIT   1167.99     0  02:01      2.49    2.25    0.89
  YS02001788YS02001790 CONDUIT   1180.75     0  02:00      2.73    0.87    0.84
  YS02001790YS02001791 CONDUIT   1294.38     0  02:00      3.42    1.41    0.71
  YS02001791YS02001793 CONDUIT   1252.93     0  02:00      6.41    0.54    0.43
  YS02001793JiankangQianchi CONDUIT   1306.96     0  02:00     24.59    0.10    0.50
  YS02001882YS02001884 CONDUIT     61.77     0  01:54      0.13    0.07    1.00
  YS02001884YS02001887 CONDUIT     87.57     0  01:54      0.11    0.12    1.00
  YS02001887YS02001890 CONDUIT    857.29     0  02:01      1.09    1.47    1.00
  YS02001890YS02001895 CONDUIT    517.12     0  02:05      0.66    0.24    1.00
  YS02001895YS02001898 CONDUIT    517.08     0  02:05      0.66    0.90    1.00
  YS02001898YS02001901 CONDUIT    517.10     0  02:05      0.66    0.33    1.00
  YS02001901YS02001904 CONDUIT    516.96     0  02:05      0.66    0.80    1.00
  YS02001904YS02001907 CONDUIT    517.20     0  02:05      0.66    0.18    1.00
  YS02001907YS02006553 CONDUIT    796.28     0  02:19      0.88    0.94    1.00
  YS02001910YS02001907 CONDUIT   1477.84     0  02:02      1.88    0.83    1.00
  YS02001915YS02001910 CONDUIT   1478.16     0  02:02      1.88    0.73    1.00
  YS02001918YS02001915 CONDUIT    496.45     0  02:02      0.63    0.27    1.00
  YS02001920YS02001918 CONDUIT    496.48     0  02:02      0.64    0.48    1.00
  YS02001923YS02001920 CONDUIT    493.47     0  02:02      0.70    0.22    1.00
  YS02001926YS02001923 CONDUIT    491.93     0  02:02      0.95    0.70    1.00
  YS02001929YS02001926 CONDUIT    491.55     0  02:02      1.12    0.23    1.00
  YS02006553YS02006556 CONDUIT    796.25     0  02:19      1.01    0.68    1.00
  YS02006556YS02006558 CONDUIT    796.79     0  02:19      1.01    0.63    1.00
  YS02006558YS02006561 CONDUIT   1179.31     0  01:56      4.17    2.61    1.00
  YS02006561YS02001783 CONDUIT   1166.20     0  02:00      2.32    0.60    1.00
  YS02163301YS02001633 CONDUIT    973.60     0  02:22      1.24    0.92    1.00
  YS02163601YS02164001 CONDUIT   1382.65     0  01:56      1.76    1.23    1.00
  YS02164001YS02001641 CONDUIT   1381.41     0  01:56      1.76    1.89    1.00
  CC-R1                PUMP       683.00     0  00:00              1.00
  CC-R2                PUMP       683.00     0  00:00              1.00
  CC-S1                PUMP       200.00     0  00:00              1.00
  CC-S2                PUMP       200.00     0  00:00              1.00
  JK-R1                PUMP      1000.00     0  00:00              1.00
  JK-R2                PUMP      1000.00     0  00:00              1.00
  JK-S                 PUMP       300.00     0  00:00              1.00
  
  
  ***************************
  Flow Classification Summary
  ***************************
  
  -------------------------------------------------------------------------------------
                      Adjusted    ---------- Fraction of Time in Flow Class ---------- 
                       /Actual         Up    Down  Sub   Sup   Up    Down  Norm  Inlet 
  Conduit               Length    Dry  Dry   Dry   Crit  Crit  Crit  Crit  Ltd   Ctrl  
  -------------------------------------------------------------------------------------
  1                       1.00   0.00  0.00  0.00  0.00  1.00  0.00  0.00  0.31  0.00
  WS02003060WS02003069    1.00   0.00  0.00  0.00  0.97  0.03  0.00  0.00  0.76  0.00
  WS02003066WSF200        1.00   0.05  0.00  0.00  0.00  0.95  0.00  0.00  0.91  0.00
  WS02003067WS02003066    1.00   0.05  0.00  0.00  0.95  0.00  0.00  0.00  0.00  0.00
  WS02003069WS02003072    1.00   0.00  0.00  0.00  0.99  0.01  0.00  0.00  0.78  0.00
  WS02003072WS02003073    1.00   0.00  0.00  0.00  0.00  0.00  0.00  1.00  0.00  0.00
  WS02004401WS02004402    1.00   0.02  0.00  0.00  0.98  0.00  0.00  0.00  0.00  0.00
  WS02004402WS02004403    1.00   0.02  0.00  0.00  0.98  0.00  0.00  0.00  0.00  0.00
  WS02004403WS02004404    1.00   0.00  0.03  0.00  0.97  0.00  0.00  0.00  0.00  0.00
  WS02004404WS02004405    1.00   0.00  0.00  0.00  1.00  0.00  0.00  0.00  0.00  0.00
  WS02004405WS02004406    1.00   0.00  0.00  0.00  1.00  0.00  0.00  0.00  0.00  0.00
  WS02004406WS02004407    1.00   0.00  0.03  0.00  0.97  0.00  0.00  0.00  0.00  0.00
  WS02004407WS02004409    1.00   0.03  0.00  0.00  0.96  0.01  0.00  0.00  0.96  0.00
  WS02004409WS02004410    1.00   0.03  0.00  0.00  0.96  0.00  0.00  0.00  0.00  0.00
  WS02004410WS02004411    1.00   0.04  0.00  0.00  0.96  0.00  0.00  0.00  0.00  0.00
  WS02004411WS02004412    1.00   0.04  0.00  0.00  0.96  0.00  0.00  0.00  0.00  0.00
  WS02004412WS02004413    1.00   0.04  0.00  0.00  0.96  0.00  0.00  0.00  0.00  0.00
  WS02004413WS02003067    1.00   0.04  0.01  0.00  0.00  0.00  0.95  0.00  0.00  0.00
  WS02006109WS02006110    1.00   0.00  0.01  0.00  0.98  0.00  0.01  0.00  0.00  0.00
  WS02006110WS02006113    1.00   0.01  0.01  0.00  0.98  0.00  0.00  0.00  0.00  0.00
  WS02006111WS02006112    1.00   0.02  0.00  0.00  0.98  0.00  0.00  0.00  0.98  0.00
  WS02006112WS02006115    1.00   0.02  0.00  0.00  0.97  0.00  0.00  0.00  0.00  0.00
  WS02006113WS02006111    1.00   0.02  0.00  0.00  0.00  0.98  0.00  0.00  0.10  0.00
  WS02006115WS02006116    1.00   0.02  0.00  0.00  0.97  0.00  0.00  0.01  0.00  0.00
  WS02006116WS02004401    1.00   0.02  0.00  0.00  0.98  0.00  0.00  0.00  0.00  0.00
  WS02006228WS02006109    1.00   0.00  0.00  0.00  1.00  0.00  0.00  0.00  0.00  0.00
  WS02006229WS02006228    1.00   0.00  0.00  0.00  0.99  0.00  0.00  0.01  0.00  0.00
  WS02006230WS02006229    1.00   0.00  0.00  0.00  0.99  0.00  0.00  0.01  0.02  0.00
  WS02006231WS02006230    1.00   0.00  0.00  0.00  0.23  0.00  0.77  0.00  0.00  0.00
  WS02006232WS02006231    1.00   0.00  0.00  0.00  0.99  0.00  0.00  0.00  0.00  0.00
  WS02006234WS02006232    1.00   0.00  0.00  0.00  1.00  0.00  0.00  0.00  0.02  0.00
  WS02006235WS02006234    1.00   0.00  0.00  0.00  0.92  0.00  0.08  0.00  0.00  0.00
  WS02006238WS02006235    1.00   0.00  0.00  0.00  1.00  0.00  0.00  0.00  0.00  0.00
  WS02006239WS02006238    1.00   0.00  0.00  0.00  1.00  0.00  0.00  0.00  0.07  0.00
  WS02006240WS02006239    1.00   0.00  0.00  0.00  0.91  0.00  0.00  0.08  0.30  0.00
  WS02006242WS02006240    1.00   0.00  0.00  0.00  0.92  0.00  0.07  0.00  0.00  0.00
  WS02006243WS02006242    1.00   0.00  0.00  0.00  0.98  0.00  0.00  0.02  0.64  0.00
  WS02006245WS02006243    1.00   0.00  0.00  0.00  0.68  0.00  0.00  0.32  0.00  0.00
  WS02006247WS02006245    1.00   0.00  0.00  0.00  0.96  0.00  0.00  0.03  0.00  0.00
  WS02006248WS02006247    1.00   0.00  0.00  0.00  0.98  0.00  0.00  0.02  0.40  0.00
  WS02006249WS02006248    1.00   0.00  0.00  0.00  0.41  0.00  0.59  0.00  0.00  0.00
  WS02006251WS02006249    1.00   0.00  0.00  0.00  0.99  0.01  0.00  0.00  0.63  0.00
  WS02006252WS02006251    1.00   0.00  0.45  0.00  0.08  0.00  0.47  0.00  0.00  0.00
  WS02006256WS02006235    1.00   0.00  0.00  0.00  0.95  0.05  0.00  0.00  0.01  0.00
  WSF200WS02003060        1.00   0.00  0.05  0.00  0.39  0.56  0.00  0.00  0.71  0.00
  YS02001580YS02001583    1.00   0.23  0.57  0.00  0.20  0.00  0.00  0.00  0.66  0.00
  YS02001583YS02001586    1.00   0.41  0.33  0.00  0.25  0.00  0.00  0.00  0.66  0.00
  YS02001586YS02001590    1.00   0.13  0.00  0.00  0.44  0.04  0.00  0.39  0.37  0.00
  YS02001590YS02001593    1.00   0.13  0.01  0.00  0.12  0.00  0.75  0.00  0.00  0.00
  YS02001593YS02001596    1.00   0.14  0.00  0.00  0.14  0.01  0.00  0.71  0.02  0.00
  YS02001596YS02001600    1.00   0.14  0.00  0.00  0.20  0.01  0.00  0.65  0.04  0.00
  YS02001600YS02001601    1.00   0.13  0.01  0.00  0.86  0.00  0.00  0.00  0.60  0.00
  YS02001601YS02001602    1.00   0.13  0.01  0.00  0.86  0.00  0.00  0.00  0.00  0.00
  YS02001602YS02001605    1.00   0.14  0.00  0.00  0.86  0.00  0.00  0.00  0.00  0.00
  YS02001605YS02001607    1.00   0.14  0.00  0.00  0.86  0.00  0.00  0.00  0.00  0.00
  YS02001607YS02001610    1.00   0.13  0.01  0.00  0.86  0.00  0.00  0.00  0.01  0.00
  YS02001610YS02001613    1.00   0.13  0.00  0.00  0.87  0.00  0.00  0.00  0.00  0.00
  YS02001613YS02001616    1.00   0.13  0.00  0.00  0.87  0.00  0.00  0.00  0.00  0.00
  YS02001616YS02001619    1.00   0.13  0.00  0.00  0.87  0.00  0.00  0.00  0.00  0.00
  YS02001619YS02001622    1.00   0.13  0.00  0.00  0.87  0.00  0.00  0.00  0.28  0.00
  YS02001622YS02001625    1.00   0.13  0.00  0.00  0.87  0.00  0.00  0.00  0.04  0.00
  YS02001625YS02001629    1.00   0.13  0.05  0.00  0.17  0.00  0.66  0.00  0.00  0.00
  YS02001629YS02163301    1.00   0.15  0.01  0.00  0.84  0.00  0.00  0.00  0.00  0.00
  YS02001633YS02163601    1.00   0.00  0.01  0.00  0.99  0.00  0.00  0.00  0.15  0.00
  YS02001641YS02001644    1.00   0.00  0.01  0.00  0.99  0.00  0.00  0.00  0.00  0.00
  YS02001644YS02001647    1.00   0.00  0.17  0.00  0.83  0.00  0.00  0.00  0.00  0.00
  YS02001647YS02001649    1.00   0.00  0.17  0.00  0.50  0.33  0.00  0.00  0.55  0.00
  YS02001649YS02001757    1.00   0.00  0.00  0.00  0.85  0.15  0.00  0.00  0.75  0.00
  YS02001652YS02001649    1.00   0.00  0.00  0.00  0.97  0.03  0.00  0.00  0.74  0.00
  YS02001655YS02001652    1.00   0.00  0.00  0.00  0.19  0.01  0.00  0.80  0.10  0.00
  YS02001658YS02001655    1.00   0.00  0.14  0.00  0.60  0.26  0.00  0.00  0.73  0.00
  YS02001661YS02001658    1.00   0.14  0.00  0.00  0.44  0.42  0.00  0.00  0.71  0.00
  YS02001664YS02001661    1.00   0.13  0.00  0.00  0.73  0.14  0.00  0.00  0.85  0.00
  YS02001745YS02001748    1.00   0.00  0.00  0.00  0.04  0.01  0.00  0.95  0.02  0.00
  YS02001748YS02001751    1.00   0.00  0.00  0.00  0.76  0.24  0.00  0.00  0.83  0.00
  YS02001751YS02001754    1.00   0.00  0.00  0.00  0.12  0.01  0.00  0.87  0.05  0.00
  YS02001754YS02001757    1.00   0.00  0.00  0.00  1.00  0.00  0.00  0.00  0.85  0.00
  YS02001757CaochengTiaoxuchi    1.00   0.00  0.00  0.00  0.11  0.89  0.00  0.00  0.11  0.00
  YS02001759YS02001757    1.00   0.00  0.00  0.00  1.00  0.00  0.00  0.00  0.65  0.00
  YS02001762YS02001759    1.00   0.00  0.00  0.00  1.00  0.00  0.00  0.00  0.05  0.00
  YS02001765YS02001762    1.00   0.00  0.00  0.00  1.00  0.00  0.00  0.00  0.71  0.00
  YS02001767YS02001765    1.00   0.00  0.00  0.00  1.00  0.00  0.00  0.00  0.00  0.00
  YS02001770YS02001767    1.00   0.00  0.00  0.00  1.00  0.00  0.00  0.00  0.00  0.00
  YS02001774YS02001770    1.00   0.00  0.13  0.00  0.71  0.00  0.16  0.00  0.03  0.00
  YS02001779YS02001774    1.00   0.00  0.00  0.00  1.00  0.00  0.00  0.00  0.78  0.00
  YS02001783YS02001784    1.00   0.00  0.18  0.00  0.82  0.00  0.00  0.00  0.55  0.00
  YS02001784YS02001785    1.00   0.00  0.00  0.00  1.00  0.00  0.00  0.00  0.17  0.00
  YS02001786YS02001788    1.00   0.00  0.00  0.00  0.79  0.21  0.00  0.00  0.00  0.00
  YS02001788YS02001790    1.00   0.00  0.00  0.00  0.22  0.78  0.00  0.00  0.80  0.00
  YS02001790YS02001791    1.00   0.00  0.00  0.00  0.01  0.99  0.00  0.00  0.16  0.00
  YS02001791YS02001793    1.00   0.00  0.00  0.00  0.00  1.00  0.00  0.00  0.01  0.00
  YS02001793JiankangQianchi    1.00   0.00  0.00  0.00  0.00  1.00  0.00  0.00  0.13  0.00
  YS02001882YS02001884    1.00   0.15  0.01  0.00  0.84  0.00  0.00  0.00  0.00  0.00
  YS02001884YS02001887    1.00   0.06  0.05  0.00  0.89  0.00  0.00  0.00  0.00  0.00
  YS02001887YS02001890    1.00   0.00  0.00  0.00  0.97  0.00  0.03  0.00  0.00  0.00
  YS02001890YS02001895    1.00   0.00  0.16  0.00  0.84  0.00  0.00  0.00  0.00  0.00
  YS02001895YS02001898    1.00   0.16  0.00  0.00  0.82  0.00  0.02  0.00  0.00  0.00
  YS02001898YS02001901    1.00   0.17  0.00  0.00  0.83  0.00  0.00  0.00  0.01  0.00
  YS02001901YS02001904    1.00   0.17  0.00  0.00  0.83  0.00  0.00  0.00  0.00  0.00
  YS02001904YS02001907    1.00   0.00  0.16  0.00  0.83  0.00  0.00  0.00  0.00  0.00
  YS02001907YS02006553    1.00   0.00  0.02  0.00  0.98  0.00  0.00  0.00  0.00  0.00
  YS02001910YS02001907    1.00   0.00  0.00  0.00  0.97  0.00  0.00  0.03  0.12  0.00
  YS02001915YS02001910    1.00   0.00  0.00  0.00  0.97  0.03  0.00  0.00  0.16  0.00
  YS02001918YS02001915    1.00   0.00  0.01  0.00  0.98  0.02  0.00  0.00  0.74  0.00
  YS02001920YS02001918    1.00   0.00  0.01  0.00  0.99  0.00  0.00  0.00  0.00  0.00
  YS02001923YS02001920    1.00   0.00  0.00  0.00  1.00  0.00  0.00  0.00  0.92  0.00
  YS02001926YS02001923    1.00   0.00  0.07  0.00  0.06  0.00  0.86  0.00  0.00  0.00
  YS02001929YS02001926    1.00   0.00  0.13  0.00  0.87  0.00  0.00  0.00  0.82  0.00
  YS02006553YS02006556    1.00   0.01  0.00  0.00  0.99  0.00  0.00  0.00  0.03  0.00
  YS02006556YS02006558    1.00   0.00  0.00  0.00  1.00  0.00  0.00  0.00  0.00  0.00
  YS02006558YS02006561    1.00   0.18  0.00  0.00  0.06  0.76  0.00  0.00  0.18  0.00
  YS02006561YS02001783    1.00   0.18  0.00  0.00  0.09  0.73  0.00  0.00  0.68  0.00
  YS02163301YS02001633    1.00   0.00  0.15  0.00  0.85  0.00  0.00  0.00  0.00  0.00
  YS02163601YS02164001    1.00   0.00  0.08  0.00  0.92  0.00  0.00  0.00  0.00  0.00
  YS02164001YS02001641    1.00   0.01  0.08  0.00  0.92  0.00  0.00  0.00  0.06  0.00
  
  
  *************************
  Conduit Surcharge Summary
  *************************
  
  ----------------------------------------------------------------------------
                                                           Hours        Hours 
                         --------- Hours Full --------   Above Full   Capacity
  Conduit                Both Ends  Upstream  Dnstream   Normal Flow   Limited
  ----------------------------------------------------------------------------
  WS02003072WS02003073        0.01      0.01      0.01      0.71         0.01
  WS02004404WS02004405        0.01      0.01      0.01      2.45         0.01
  WS02006109WS02006110        0.01      0.01      1.69      0.01         0.01
  WS02006110WS02006113        0.01      0.01      1.67      0.01         0.01
  WS02006111WS02006112        0.01      0.01      1.77      0.01         0.01
  WS02006112WS02006115        0.01      0.01      0.38      0.01         0.01
  WS02006228WS02006109        1.62      1.69      1.62      2.02         1.62
  WS02006229WS02006228        1.60      1.63      1.60      1.88         1.60
  WS02006230WS02006229        1.77      1.82      1.77      3.35         1.77
  WS02006231WS02006230        0.01      0.01      0.54      2.57         0.01
  WS02006232WS02006231        0.49      0.49      1.70      0.50         0.01
  WS02006234WS02006232        1.57      1.57      1.70      0.03         0.32
  WS02006235WS02006234        1.27      1.28      1.62      2.41         0.27
  WS02006238WS02006235        1.64      1.64      1.73      0.01         0.01
  WS02006239WS02006238        1.66      1.70      1.66      1.83         1.26
  WS02006240WS02006239        1.63      1.65      1.63      1.82         1.31
  WS02006242WS02006240        1.63      1.63      1.77      1.91         0.01
  WS02006243WS02006242        1.66      1.66      1.73      0.01         0.04
  WS02006245WS02006243        1.64      1.65      1.64      1.85         1.49
  WS02006247WS02006245        1.64      1.67      1.64      2.12         1.64
  WS02006248WS02006247        1.64      1.64      1.66      0.01         0.03
  WS02006249WS02006248        1.63      1.63      1.65      2.02         0.01
  WS02006251WS02006249        1.65      1.65      1.65      1.92         1.59
  WS02006252WS02006251        2.12      2.12      2.12      2.13         0.01
  WS02006256WS02006235        1.66      2.45      5.29      0.80         0.17
  YS02001580YS02001583        0.65      0.65      0.67      0.01         0.01
  YS02001583YS02001586        0.65      0.65      0.75      0.01         0.01
  YS02001586YS02001590        0.76      0.76      0.83      0.01         0.01
  YS02001590YS02001593        0.83      0.83      0.85      0.90         0.01
  YS02001593YS02001596        0.84      0.84      0.94      0.01         0.01
  YS02001596YS02001600        0.99      0.99      1.11      0.01         0.01
  YS02001600YS02001601        1.19      1.19      1.47      0.01         0.01
  YS02001601YS02001602        1.38      1.38      1.51      1.14         0.01
  YS02001602YS02001605        1.33      1.33      1.38      2.29         0.01
  YS02001605YS02001607        1.28      1.33      1.28      1.44         1.28
  YS02001607YS02001610        0.75      0.75      0.78      0.01         0.01
  YS02001610YS02001613        0.74      0.74      0.78      0.01         0.01
  YS02001613YS02001616        0.70      0.70      0.74      0.01         0.01
  YS02001616YS02001619        0.68      0.68      0.70      0.01         0.03
  YS02001619YS02001622        0.67      0.68      0.67      0.87         0.66
  YS02001622YS02001625        0.67      0.67      0.88      0.01         0.01
  YS02001625YS02001629        0.56      0.56      0.88      0.01         0.01
  YS02001629YS02163301        0.86      0.86      0.87      0.40         0.38
  YS02001633YS02163601        0.89      0.89      0.92      0.52         0.52
  YS02001641YS02001644        0.68      0.76      0.68      1.54         0.67
  YS02001644YS02001647        0.42      0.42      0.68      0.04         0.01
  YS02001647YS02001649        0.42      0.42      0.46      0.01         0.01
  YS02001649YS02001757        0.44      0.46      0.44      0.42         0.30
  YS02001652YS02001649        0.35      0.35      0.46      0.01         0.01
  YS02001655YS02001652        0.26      0.26      0.33      0.01         0.01
  YS02001658YS02001655        0.18      0.18      0.26      0.01         0.01
  YS02001661YS02001658        0.04      0.04      0.18      0.01         0.01
  YS02001664YS02001661        0.01      0.01      0.09      0.01         0.01
  YS02001745YS02001748        0.01      0.01      0.11      0.01         0.01
  YS02001748YS02001751        0.16      0.16      0.20      0.01         0.01
  YS02001751YS02001754        0.20      0.20      0.26      0.01         0.01
  YS02001754YS02001757        0.28      0.28      0.44      0.01         0.01
  YS02001757CaochengTiaoxuchi        0.01      0.44      0.01      0.55         0.01
  YS02001759YS02001757        0.39      0.39      0.44      0.01         0.03
  YS02001762YS02001759        0.37      0.37      0.39      0.01         0.03
  YS02001765YS02001762        0.35      0.35      0.37      0.01         0.01
  YS02001767YS02001765        0.33      0.33      0.35      0.01         0.04
  YS02001770YS02001767        0.33      0.34      0.33      0.62         0.33
  YS02001774YS02001770        0.33      0.33      0.37      0.01         0.01
  YS02001779YS02001774        0.28      0.28      0.37      0.01         0.01
  YS02001783YS02001784        0.54      0.57      0.54      0.72         0.54
  YS02001784YS02001785        0.43      0.54      0.43      0.97         0.43
  YS02001786YS02001788        0.01      0.43      0.01      0.83         0.01
  YS02001790YS02001791        0.01      0.01      0.01      0.53         0.01
  YS02001882YS02001884        0.51      0.51      0.52      0.01         0.01
  YS02001884YS02001887        0.55      0.55      0.56      0.01         0.01
  YS02001887YS02001890        0.57      0.57      0.58      0.13         0.01
  YS02001890YS02001895        0.50      0.50      0.60      0.01         0.01
  YS02001895YS02001898        0.49      0.49      0.50      0.01         0.01
  YS02001898YS02001901        0.51      0.51      0.54      0.01         0.01
  YS02001901YS02001904        0.53      0.53      0.54      0.01         0.01
  YS02001904YS02001907        0.53      0.53      0.81      0.01         0.01
  YS02001907YS02006553        0.98      0.98      1.05      0.01         0.01
  YS02001910YS02001907        0.60      0.60      0.79      0.01         0.01
  YS02001915YS02001910        0.51      0.51      0.60      0.01         0.01
  YS02001918YS02001915        0.42      0.42      0.51      0.01         0.01
  YS02001920YS02001918        0.42      0.42      0.44      0.01         0.01
  YS02001923YS02001920        0.38      0.38      0.44      0.01         0.01
  YS02001926YS02001923        0.12      0.12      0.15      0.01         0.01
  YS02001929YS02001926        0.01      0.01      0.15      0.01         0.01
  YS02006553YS02006556        0.70      0.70      0.81      0.01         0.01
  YS02006556YS02006558        0.75      0.75      0.82      0.01         0.01
  YS02006558YS02006561        0.46      0.68      0.46      0.92         0.46
  YS02006561YS02001783        0.39      0.39      0.57      0.01         0.01
  YS02163301YS02001633        0.87      0.87      0.91      0.01         0.03
  YS02163601YS02164001        0.78      0.78      0.92      0.33         0.01
  YS02164001YS02001641        0.76      0.78      0.76      0.78         0.58
  
  
  ***************
  Pumping Summary
  ***************
  
  ---------------------------------------------------------------------------------------------------------
                                                  Min       Avg       Max     Total     Power    % Time Off
                        Percent   Number of      Flow      Flow      Flow    Volume     Usage    Pump Curve
  Pump                 Utilized   Start-Ups       LPS       LPS       LPS  10^6 ltr     Kw-hr    Low   High
  ---------------------------------------------------------------------------------------------------------
  CC-R1                   26.86          32      0.00    683.00    683.00     5.229     84.92    0.0  100.0
  CC-R2                   26.86          32      0.00    683.00    683.00     5.229     84.92    0.0  100.0
  CC-S1                   26.86          32      0.00    200.00    200.00     1.531     12.04    0.0   35.4
  CC-S2                   26.86          32      0.00    200.00    200.00     1.531     12.04    0.0   35.4
  JK-R1                   10.80        1226      0.00    906.04   1000.00     2.378      5.54    0.0    0.0
  JK-R2                   10.80        1226      0.00    906.04   1000.00     2.378      5.54    0.0    0.0
  JK-S                    10.80        1226      0.00    294.83    300.00     0.870     20.00    0.0    0.0
  

  Analysis begun on:  Wed Feb 26 11:09:05 2025
  Analysis ended on:  Wed Feb 26 11:09:06 2025
  Total elapsed time: 00:00:01