
  EPA STORM WATER MANAGEMENT MODEL - VERSION 5.2 (Build 5.2.4)
  PYSWMM TOOLKIT API - VERSION v1.0 (2023-11-27)
  ------------------------------------------------------------

  WARNING 04: minimum elevation drop used for Conduit WS02004404WS02004405
  WARNING 03: negative offset ignored for Link YS02001904YS02001907
  
  ****************
  Analysis Options
  ****************
  Flow Units ............... LPS
  Process Models:
    Rainfall/Runoff ........ YES
    RDII ................... NO
    Snowmelt ............... NO
    Groundwater ............ NO
    Flow Routing ........... YES
    Ponding Allowed ........ NO
    Water Quality .......... NO
  Infiltration Method ...... HORTON
  Flow Routing Method ...... DYNWAVE
  Surcharge Method ......... EXTRAN
  Starting Date ............ 08/28/2015 08:00:00
  Ending Date .............. 08/28/2015 16:00:00
  Antecedent Dry Days ...... 8.0
  Report Time Step ......... 00:01:00
  Wet Time Step ............ 00:01:00
  Dry Time Step ............ 00:01:00
  Routing Time Step ........ 30.00 sec
  Variable Time Step ....... YES
  Maximum Trials ........... 8
  Number of Threads ........ 4
  Head Tolerance ........... 0.001500 m
  
  
  **************************        Volume         Depth
  Runoff Quantity Continuity     hectare-m            mm
  **************************     ---------       -------
  Total Precipitation ......         3.201        96.494
  Evaporation Loss .........         0.000         0.000
  Infiltration Loss ........         0.102         3.087
  Surface Runoff ...........         3.066        92.439
  Final Storage ............         0.033         0.997
  Continuity Error (%) .....        -0.029
  
  
  **************************        Volume        Volume
  Flow Routing Continuity        hectare-m      10^6 ltr
  **************************     ---------     ---------
  Dry Weather Inflow .......         0.025         0.248
  Wet Weather Inflow .......         3.066        30.656
  Groundwater Inflow .......         0.000         0.000
  RDII Inflow ..............         0.000         0.000
  External Inflow ..........         0.083         0.825
  External Outflow .........         2.303        23.030
  Flooding Loss ............         1.211        12.114
  Evaporation Loss .........         0.000         0.000
  Exfiltration Loss ........         0.000         0.000
  Initial Stored Volume ....         0.243         2.431
  Final Stored Volume ......         0.038         0.377
  Continuity Error (%) .....        -3.984
  
  
  *************************
  Highest Continuity Errors
  *************************
  Node JK-storage (-23.37%)
  Node WS02006256 (-12.97%)
  Node YS02001583 (-10.62%)
  Node YS02001884 (5.03%)
  
  
  ***************************
  Time-Step Critical Elements
  ***************************
  Link YS02001793JiankangQianchi (43.01%)
  Link WS02006238WS02006235 (28.10%)
  Link WS02004404WS02004405 (5.62%)
  Link WS02003066WSF200 (4.58%)
  Link WS02006235WS02006234 (4.23%)
  
  
  ********************************
  Highest Flow Instability Indexes
  ********************************
  Link WS02006256WS02006235 (60)
  Link WS02006252WS02006251 (51)
  Link WS02006235WS02006234 (43)
  Link WS02006238WS02006235 (43)
  Link WS02006229WS02006228 (37)
  
  
  *********************************
  Most Frequent Nonconverging Nodes
  *********************************
  Node CC-1 (55.08%)
  Node CC-2 (55.08%)
  Node JK-1 (55.08%)
  Node JK-2 (55.08%)
  Node WSC (55.08%)
  
  
  *************************
  Routing Time Step Summary
  *************************
  Minimum Time Step           :     0.01 sec
  Average Time Step           :     2.54 sec
  Maximum Time Step           :     6.43 sec
  % of Time in Steady State   :     0.00
  Average Iterations per Step :     5.82
  % of Steps Not Converging   :    55.08
  Time Step Frequencies       :
     30.000 - 13.228 sec      :     0.00 %
     13.228 -  5.833 sec      :     5.82 %
      5.833 -  2.572 sec      :    33.37 %
      2.572 -  1.134 sec      :    39.23 %
      1.134 -  0.500 sec      :    21.59 %
  
  
  ***************************
  Subcatchment Runoff Summary
  ***************************
  
  ------------------------------------------------------------------------------------------------------------------------------
                            Total      Total      Total      Total     Imperv       Perv      Total       Total     Peak  Runoff
                           Precip      Runon       Evap      Infil     Runoff     Runoff     Runoff      Runoff   Runoff   Coeff
  Subcatchment                 mm         mm         mm         mm         mm         mm         mm    10^6 ltr      LPS
  ------------------------------------------------------------------------------------------------------------------------------
  sub60                     96.49       0.00       0.00       1.87      83.73       9.72      93.44        1.23   824.01   0.968
  sub61                     96.49       0.00       0.00       2.71      78.97      13.71      92.68        1.70  1141.42   0.960
  sub62                     96.49       0.00       0.00       1.24      87.50       6.48      93.98        2.58  1607.60   0.974
  sub63                     96.49       0.00       0.00       4.97      67.55      23.02      90.58        2.06  1269.62   0.939
  sub64                     96.49       0.00       0.00       2.51      80.82      11.96      92.79        2.23  1299.70   0.962
  sub65                     96.49       0.00       0.00       2.18      82.71      10.37      93.08        2.56  1454.19   0.965
  sub66                     96.49       0.00       0.00       6.10      67.44      21.89      89.33        4.17  1888.85   0.926
  sub67                     96.49       0.00       0.00       1.20      87.55       6.53      94.07        1.75  1251.78   0.975
  sub68                     96.49       0.00       0.00       2.24      81.81      11.27      93.09        2.56  1648.36   0.965
  sub69                     96.49       0.00       0.00       2.00      81.92      12.48      94.39        3.49  1938.38   0.978
  sub70                     96.49       0.00       0.00       6.61      63.52      26.20      89.73        2.59  1060.01   0.930
  sub71                     96.49       0.00       0.00       1.28      87.46       6.45      93.90        2.46  1408.44   0.973
  sub72                     96.49       0.00       0.00       1.13      88.34       5.62      93.97        1.29   677.01   0.974
  
  
  ******************
  Node Depth Summary
  ******************
  
  ---------------------------------------------------------------------------------
                                 Average  Maximum  Maximum  Time of Max    Reported
                                   Depth    Depth      HGL   Occurrence   Max Depth
  Node                 Type       Meters   Meters   Meters  days hr:min      Meters
  ---------------------------------------------------------------------------------
  WS02003060           JUNCTION     0.23     0.37     5.30     0  02:11        0.37
  WS02003066           JUNCTION     0.19     0.29     5.84     0  02:10        0.29
  WS02003067           JUNCTION     0.49     0.69     6.01     0  02:10        0.69
  WS02003069           JUNCTION     0.26     0.41     5.00     0  02:11        0.41
  WS02003072           JUNCTION     0.32     0.48     4.85     0  02:12        0.48
  WS02003073           JUNCTION     0.18     0.29     4.35     0  02:12        0.29
  WS02004401           JUNCTION     0.59     0.82     6.82     0  02:07        0.82
  WS02004402           JUNCTION     0.62     0.85     6.81     0  02:07        0.85
  WS02004403           JUNCTION     0.64     0.87     6.80     0  01:54        0.87
  WS02004404           JUNCTION     0.71     0.94     6.79     0  01:54        0.94
  WS02004405           JUNCTION     0.71     0.93     6.78     0  02:08        0.93
  WS02004406           JUNCTION     0.72     0.94     6.77     0  02:08        0.94
  WS02004407           JUNCTION     0.18     0.29     6.60     0  02:08        0.28
  WS02004409           JUNCTION     0.39     0.64     6.41     0  02:08        0.64
  WS02004410           JUNCTION     0.41     0.66     6.38     0  02:09        0.66
  WS02004411           JUNCTION     0.43     0.67     6.35     0  02:09        0.67
  WS02004412           JUNCTION     0.45     0.68     6.32     0  02:09        0.68
  WS02004413           JUNCTION     0.61     0.84     6.31     0  02:10        0.84
  WS02006109           JUNCTION     0.67     0.94     7.56     0  01:37        0.93
  WS02006110           JUNCTION     0.67     0.90     7.48     0  01:52        0.90
  WS02006111           JUNCTION     0.18     0.28     6.98     0  02:06        0.28
  WS02006112           JUNCTION     0.75     1.02     6.91     0  02:07        1.02
  WS02006113           JUNCTION     0.28     0.44     7.33     0  01:52        0.44
  WS02006115           JUNCTION     0.48     0.72     6.86     0  02:07        0.72
  WS02006116           JUNCTION     0.56     0.80     6.84     0  02:07        0.80
  WS02006228           JUNCTION     0.67     0.98     7.63     0  01:52        0.96
  WS02006229           JUNCTION     0.64     0.97     7.67     0  01:52        0.96
  WS02006230           JUNCTION     0.65     1.05     7.79     0  01:52        1.03
  WS02006231           JUNCTION     0.45     1.07     8.19     0  01:52        0.79
  WS02006232           JUNCTION     0.59     2.18     9.22     0  01:52        2.18
  WS02006234           JUNCTION     0.52     1.96     9.12     0  01:51        1.96
  WS02006235           JUNCTION     0.57     2.00     9.16     0  01:51        2.00
  WS02006238           JUNCTION     0.60     2.15     9.29     0  01:51        2.15
  WS02006239           JUNCTION     0.57     2.03     9.24     0  01:51        2.03
  WS02006240           JUNCTION     0.54     2.10     9.39     0  01:52        2.10
  WS02006242           JUNCTION     0.62     1.55     8.82     0  01:51        1.55
  WS02006243           JUNCTION     0.55     1.48     8.90     0  02:35        1.48
  WS02006245           JUNCTION     0.56     1.56     9.04     0  02:40        1.56
  WS02006247           JUNCTION     0.58     1.47     8.97     0  02:40        1.47
  WS02006248           JUNCTION     0.55     1.10     8.69     0  01:38        1.10
  WS02006249           JUNCTION     0.58     1.09     8.69     0  01:36        1.09
  WS02006251           JUNCTION     0.58     1.48     9.15     0  01:36        1.14
  WS02006252           JUNCTION     0.37     1.50     9.74     0  00:00        0.69
  WS02006256           JUNCTION     1.01     2.35     9.28     0  00:00        2.35
  WSF200               JUNCTION     0.17     0.28     5.51     0  02:10        0.28
  YS02001580           JUNCTION     0.22     1.05     9.59     0  01:32        0.78
  YS02001583           JUNCTION     0.25     1.14     9.64     0  01:32        0.84
  YS02001586           JUNCTION     0.39     1.13     9.30     0  01:32        1.13
  YS02001590           JUNCTION     0.51     1.40     9.26     0  01:32        1.40
  YS02001593           JUNCTION     0.45     1.36     9.22     0  01:32        1.29
  YS02001596           JUNCTION     0.60     1.70     9.12     0  01:32        1.66
  YS02001600           JUNCTION     0.71     1.87     9.00     0  01:32        1.87
  YS02001601           JUNCTION     0.89     2.06     8.90     0  01:31        2.06
  YS02001602           JUNCTION     0.78     1.87     8.77     0  01:32        1.87
  YS02001605           JUNCTION     0.72     1.78     8.68     0  01:32        1.78
  YS02001607           JUNCTION     0.66     1.67     8.52     0  01:52        1.67
  YS02001610           JUNCTION     0.70     1.68     8.48     0  01:32        1.68
  YS02001613           JUNCTION     0.66     1.68     8.52     0  01:32        1.67
  YS02001616           JUNCTION     0.60     1.61     8.52     0  01:32        1.61
  YS02001619           JUNCTION     0.58     1.61     8.54     0  01:32        1.61
  YS02001622           JUNCTION     0.56     1.62     8.52     0  01:32        1.59
  YS02001625           JUNCTION     0.80     1.78     8.38     0  01:32        1.78
  YS02001629           JUNCTION     0.71     1.85     8.40     0  01:32        1.85
  YS02001633           JUNCTION     0.78     2.08     8.53     0  01:38        2.08
  YS02001641           JUNCTION     0.73     2.01     8.45     0  01:52        2.01
  YS02001644           JUNCTION     0.71     1.92     8.35     0  01:34        1.92
  YS02001647           JUNCTION     0.48     1.81     8.42     0  01:34        1.78
  YS02001649           JUNCTION     0.54     2.05     8.44     0  01:35        2.05
  YS02001652           JUNCTION     0.41     2.16     8.76     0  01:35        1.89
  YS02001655           JUNCTION     0.31     2.20     9.05     0  01:34        1.70
  YS02001658           JUNCTION     0.23     2.30     9.44     0  01:35        1.50
  YS02001661           JUNCTION     0.23     2.46     9.86     0  01:35        1.38
  YS02001664           JUNCTION     0.11     2.31    10.23     0  01:35        1.04
  YS02001745           JUNCTION     0.12     2.35     9.87     0  01:35        0.98
  YS02001748           JUNCTION     0.20     2.27     9.35     0  01:35        1.39
  YS02001751           JUNCTION     0.25     2.20     9.08     0  01:35        1.54
  YS02001754           JUNCTION     0.35     2.20     8.81     0  01:35        1.78
  YS02001757           JUNCTION     0.54     2.21     8.47     0  01:35        2.10
  YS02001759           JUNCTION     0.48     2.21     8.57     0  01:35        2.10
  YS02001762           JUNCTION     0.47     2.15     8.55     0  01:35        2.06
  YS02001765           JUNCTION     0.45     2.10     8.55     0  01:35        2.01
  YS02001767           JUNCTION     0.44     2.03     8.52     0  01:34        1.97
  YS02001770           JUNCTION     0.45     1.95     8.44     0  01:34        1.95
  YS02001774           JUNCTION     0.51     2.01     8.43     0  01:35        2.00
  YS02001779           JUNCTION     0.33     1.68     8.37     0  01:34        1.68
  YS02001783           JUNCTION     0.41     1.53     7.67     0  01:34        1.27
  YS02001784           JUNCTION     0.41     1.32     7.39     0  01:34        1.13
  YS02001786           JUNCTION     0.34     1.01     7.04     0  01:34        0.88
  YS02001788           JUNCTION     0.24     0.63     6.60     0  01:37        0.62
  YS02001790           JUNCTION     0.29     0.73     6.37     0  01:37        0.73
  YS02001791           JUNCTION     0.17     0.44     5.91     0  01:37        0.43
  YS02001793           JUNCTION     0.11     0.26     5.09     0  01:37        0.25
  YS02001882           JUNCTION     0.52     1.83     8.55     0  01:33        1.70
  YS02001884           JUNCTION     0.60     1.93     8.55     0  01:33        1.81
  YS02001887           JUNCTION     0.68     1.94     8.48     0  01:33        1.89
  YS02001890           JUNCTION     0.70     1.81     8.32     0  01:33        1.81
  YS02001895           JUNCTION     0.48     1.75     8.50     0  01:33        1.57
  YS02001898           JUNCTION     0.49     1.77     8.51     0  01:33        1.57
  YS02001901           JUNCTION     0.60     1.82     8.43     0  01:33        1.68
  YS02001904           JUNCTION     0.58     1.66     8.29     0  01:33        1.65
  YS02001907           JUNCTION     0.88     1.96     8.25     0  01:33        1.96
  YS02001910           JUNCTION     0.71     2.08     8.59     0  01:33        2.01
  YS02001915           JUNCTION     0.54     2.00     8.72     0  01:33        2.00
  YS02001918           JUNCTION     0.35     1.81     8.88     0  01:33        1.81
  YS02001920           JUNCTION     0.43     2.14     9.15     0  01:34        1.82
  YS02001923           JUNCTION     0.29     2.03     9.29     0  01:34        1.58
  YS02001926           JUNCTION     0.30     1.90     9.35     0  01:34        1.42
  YS02001929           JUNCTION     0.20     1.78     9.47     0  01:34        1.21
  YS02006553           JUNCTION     0.88     2.04     8.33     0  01:34        2.00
  YS02006556           JUNCTION     0.86     2.11     8.42     0  01:34        2.00
  YS02006558           JUNCTION     0.90     2.19     8.45     0  01:34        2.09
  YS02006561           JUNCTION     0.27     1.24     7.90     0  01:34        0.92
  YS02163301           JUNCTION     0.73     1.95     8.47     0  01:38        1.95
  YS02163601           JUNCTION     0.80     2.08     8.48     0  01:34        2.06
  YS02164001           JUNCTION     0.72     2.00     8.46     0  01:34        1.97
  CC-1                 OUTFALL      0.00     0.00     0.00     0  00:00        0.00
  CC-2                 OUTFALL      0.00     0.00     0.00     0  00:00        0.00
  JK-1                 OUTFALL      0.00     0.00     0.00     0  00:00        0.00
  JK-2                 OUTFALL      0.00     0.00     0.00     0  00:00        0.00
  WSC                  OUTFALL      0.18     0.29     0.96     0  02:12        0.29
  CC-storage           STORAGE      0.43     1.22     6.72     0  02:30        1.22
  JK-storage           STORAGE      0.02     2.99     3.79     0  00:00        0.68
  
  
  *******************
  Node Inflow Summary
  *******************
  
  -------------------------------------------------------------------------------------------------
                                  Maximum  Maximum                  Lateral       Total        Flow
                                  Lateral    Total  Time of Max      Inflow      Inflow     Balance
                                   Inflow   Inflow   Occurrence      Volume      Volume       Error
  Node                 Type           LPS      LPS  days hr:min    10^6 ltr    10^6 ltr     Percent
  -------------------------------------------------------------------------------------------------
  WS02003060           JUNCTION     16.53   516.20     0  02:10       0.471        4.93       0.048
  WS02003066           JUNCTION      0.00   499.62     0  02:10           0        4.47       0.035
  WS02003067           JUNCTION      0.00   499.59     0  02:10           0        4.47       0.096
  WS02003069           JUNCTION      0.32   516.43     0  02:11     0.00912        4.94       0.090
  WS02003072           JUNCTION      0.00   516.21     0  02:11           0        4.94       0.159
  WS02003073           JUNCTION      1.82   517.85     0  02:12      0.0519        4.98       0.122
  WS02004401           JUNCTION      0.00   501.68     0  02:07           0        4.58       0.234
  WS02004402           JUNCTION      0.00   501.43     0  02:07           0        4.57       0.236
  WS02004403           JUNCTION      0.00   501.16     0  02:07           0        4.56       0.231
  WS02004404           JUNCTION      0.16   501.12     0  02:08     0.00462        4.55       0.191
  WS02004405           JUNCTION      0.04   501.10     0  02:08     0.00109        4.54       0.281
  WS02004406           JUNCTION      0.00   501.17     0  02:08           0        4.53       0.476
  WS02004407           JUNCTION      0.00   500.74     0  02:08           0        4.51       0.029
  WS02004409           JUNCTION      0.00   500.47     0  02:08           0        4.51       0.067
  WS02004410           JUNCTION      0.00   500.22     0  02:09           0         4.5       0.110
  WS02004411           JUNCTION      0.00   500.11     0  02:09           0         4.5       0.134
  WS02004412           JUNCTION      0.00   499.96     0  02:09           0        4.49       0.176
  WS02004413           JUNCTION      0.00   499.89     0  02:09           0        4.48       0.323
  WS02006109           JUNCTION      1.23   506.65     0  01:52      0.0351        4.63       0.220
  WS02006110           JUNCTION      0.00   506.63     0  01:52           0        4.62       0.157
  WS02006111           JUNCTION      0.00   519.90     0  01:52           0        4.61       0.029
  WS02006112           JUNCTION      0.00   504.88     0  02:06           0        4.61       0.453
  WS02006113           JUNCTION      0.00   506.57     0  01:38           0        4.61       0.039
  WS02006115           JUNCTION      0.00   507.96     0  01:48           0        4.59       0.165
  WS02006116           JUNCTION      0.00   502.26     0  02:07           0        4.58       0.073
  WS02006228           JUNCTION      0.00   505.56     0  01:52           0         4.6       0.095
  WS02006229           JUNCTION      0.00   504.82     0  01:52           0         4.6       0.110
  WS02006230           JUNCTION     10.28   543.41     0  02:06       0.293        4.61       0.130
  WS02006231           JUNCTION      0.00   523.94     0  02:06           0        4.32       0.062
  WS02006232           JUNCTION      0.00   522.11     0  01:52           0        4.33       0.161
  WS02006234           JUNCTION      0.00   514.95     0  02:06           0        4.31      -0.267
  WS02006235           JUNCTION      0.00   518.40     0  01:37           0        4.49       0.122
  WS02006238           JUNCTION      0.00   416.47     0  02:28           0        3.81       0.315
  WS02006239           JUNCTION      0.00   415.04     0  02:38           0        3.67      -0.086
  WS02006240           JUNCTION      0.00   414.19     0  02:28           0        3.63      -0.066
  WS02006242           JUNCTION      0.00   414.32     0  02:28           0        3.63      -0.008
  WS02006243           JUNCTION      0.00   414.40     0  02:28           0        3.63      -0.114
  WS02006245           JUNCTION      0.00   424.90     0  01:32           0        3.64       0.377
  WS02006247           JUNCTION      0.00   423.55     0  01:32           0        3.64      -0.046
  WS02006248           JUNCTION      0.00   415.08     0  02:38           0        3.64      -0.085
  WS02006249           JUNCTION      0.00   459.02     0  00:00           0        3.68       0.614
  WS02006251           JUNCTION      0.08   406.43     0  01:36     0.00219        3.69       0.006
  WS02006252           JUNCTION      0.00   400.00     0  00:00           0        3.67      -0.321
  WS02006256           JUNCTION      0.00   300.00     0  00:00           0        0.99     -11.484
  WSF200               JUNCTION      0.00   499.60     0  02:10           0        4.46       0.013
  YS02001580           JUNCTION      0.00   149.87     0  01:32           0     0.00436      -1.740
  YS02001583           JUNCTION      0.00   256.08     0  01:32           0      0.0148      -9.601
  YS02001586           JUNCTION   1060.01  1060.01     0  01:42        2.59         2.6       0.069
  YS02001590           JUNCTION      0.00   318.96     0  01:52           0        1.68      -0.033
  YS02001593           JUNCTION      0.00   318.86     0  01:52           0        1.68       0.023
  YS02001596           JUNCTION      0.00   317.92     0  02:13           0        1.68       0.002
  YS02001600           JUNCTION      0.00   317.99     0  01:42           0        1.68       0.015
  YS02001601           JUNCTION   1938.38  2255.99     0  01:40        3.49        5.18       0.019
  YS02001602           JUNCTION      0.00   572.59     0  01:32           0        2.74       0.020
  YS02001605           JUNCTION      0.00   572.44     0  01:32           0        2.59       0.027
  YS02001607           JUNCTION      0.00   572.40     0  01:32           0        2.59       0.079
  YS02001610           JUNCTION      0.00   947.96     0  01:44           0        3.24       0.078
  YS02001613           JUNCTION      0.00   611.51     0  01:44           0        2.57       0.058
  YS02001616           JUNCTION      0.00   611.72     0  01:44           0        2.57       0.020
  YS02001619           JUNCTION   1888.85  1888.85     0  01:41        4.16        6.09      -0.001
  YS02001622           JUNCTION      0.00  1053.65     0  01:43           0        5.35      -0.008
  YS02001625           JUNCTION      0.00  1503.85     0  01:46           0         5.7       0.167
  YS02001629           JUNCTION      0.00   958.43     0  01:32           0        4.54       0.008
  YS02001633           JUNCTION   1454.39  1454.39     0  01:40        2.57        6.54       0.055
  YS02001641           JUNCTION      0.00  1429.24     0  01:33           0        5.99       0.049
  YS02001644           JUNCTION   1299.73  2182.62     0  01:39        2.23        8.25       0.040
  YS02001647           JUNCTION      0.00  1924.89     0  01:33           0         7.1       0.007
  YS02001649           JUNCTION      0.00  2155.39     0  01:34           0        9.13       0.005
  YS02001652           JUNCTION      0.00  1271.82     0  01:38           0        2.06      -0.092
  YS02001655           JUNCTION      0.15  1271.71     0  01:38     0.00439        2.06       0.049
  YS02001658           JUNCTION      0.00  1271.76     0  01:38           0        2.06      -0.029
  YS02001661           JUNCTION      0.00  1271.62     0  01:38           0        2.06       0.006
  YS02001664           JUNCTION   1269.62  1269.62     0  01:39        2.06        2.06      -0.025
  YS02001745           JUNCTION    824.02   830.51     0  01:35        1.23        1.23       0.115
  YS02001748           JUNCTION      0.04   835.61     0  01:38     0.00128        1.24      -0.263
  YS02001751           JUNCTION      0.01   836.12     0  01:38    0.000313        1.24       0.034
  YS02001754           JUNCTION      0.26   835.90     0  01:38     0.00741        1.26      -0.080
  YS02001757           JUNCTION      0.00  3455.26     0  01:46           0          14       0.040
  YS02001759           JUNCTION   1141.46  1513.86     0  01:35         1.7        3.65      -0.004
  YS02001762           JUNCTION      0.00   830.58     0  01:50           0        1.95       0.013
  YS02001765           JUNCTION      0.00   830.15     0  01:50           0        1.95       0.008
  YS02001767           JUNCTION      0.54   829.98     0  01:50      0.0152        1.95       0.003
  YS02001770           JUNCTION   1607.76  1607.76     0  01:39        2.58        2.62      -0.007
  YS02001774           JUNCTION      0.00   851.52     0  01:42           0       0.582       0.224
  YS02001779           JUNCTION      0.01   851.09     0  01:42    0.000142        0.54      -0.071
  YS02001783           JUNCTION      0.00  1175.67     0  01:37           0        5.06       0.006
  YS02001784           JUNCTION      1.06  1176.25     0  01:37      0.0302        5.09       0.011
  YS02001786           JUNCTION      0.06  1176.76     0  01:37      0.0016         5.1       0.013
  YS02001788           JUNCTION      0.07  1176.99     0  01:37     0.00202         5.1       0.006
  YS02001790           JUNCTION      0.15  1188.12     0  01:37     0.00442         5.1      -0.001
  YS02001791           JUNCTION      0.00  1302.04     0  01:37           0         5.1      -0.000
  YS02001793           JUNCTION      0.00  1263.62     0  01:37           0         5.1       0.005
  YS02001882           JUNCTION      0.00   111.57     0  01:33           0      0.0135       4.258
  YS02001884           JUNCTION      0.00   143.77     0  01:32           0      0.0494       5.295
  YS02001887           JUNCTION   1252.23  1255.24     0  01:38        1.76         1.8       0.248
  YS02001890           JUNCTION      0.00  1255.60     0  01:38           0        1.75       0.298
  YS02001895           JUNCTION      0.00   560.17     0  01:33           0        1.41       0.112
  YS02001898           JUNCTION      0.00   559.49     0  01:33           0        1.41      -0.006
  YS02001901           JUNCTION      0.00   563.90     0  01:33           0        1.41       0.249
  YS02001904           JUNCTION      0.00   566.21     0  01:33           0        1.42       0.201
  YS02001907           JUNCTION      0.00  2989.48     0  01:39           0        5.39       0.336
  YS02001910           JUNCTION      0.00  1992.84     0  01:41           0        3.81       0.193
  YS02001915           JUNCTION   1408.46  2087.70     0  01:40        2.46        3.88       0.038
  YS02001918           JUNCTION      0.00   680.78     0  01:40           0        1.46       0.001
  YS02001920           JUNCTION      2.87   680.78     0  01:40      0.0818        1.43       0.077
  YS02001923           JUNCTION      0.04   890.61     0  01:33     0.00107        1.34      -0.076
  YS02001926           JUNCTION      0.05  1120.57     0  01:34     0.00149        1.31      -0.167
  YS02001929           JUNCTION    677.01  1054.54     0  01:34        1.29         1.3      -0.101
  YS02006553           JUNCTION      0.00   793.48     0  02:07           0        2.85       0.420
  YS02006556           JUNCTION      0.00   792.82     0  02:07           0        2.86       0.290
  YS02006558           JUNCTION   1649.24  1649.24     0  01:39        2.59        5.26       0.063
  YS02006561           JUNCTION      0.00  1192.06     0  01:34           0        5.06       0.001
  YS02163301           JUNCTION      0.00   941.85     0  02:11           0        4.52       0.039
  YS02163601           JUNCTION      0.11  1431.52     0  01:33     0.00313        5.99       0.085
  YS02164001           JUNCTION      0.00  1430.93     0  01:33           0        5.99       0.043
  CC-1                 OUTFALL       0.00   683.00     0  00:00           0        6.27       0.000
  CC-2                 OUTFALL       0.00   683.00     0  00:00           0        6.27       0.000
  JK-1                 OUTFALL       0.00  1000.00     0  00:00           0        2.76       0.000
  JK-2                 OUTFALL       0.00  1000.00     0  00:00           0        2.76       0.000
  WSC                  OUTFALL       0.00   517.70     0  02:12           0        4.97       0.000
  CC-storage           STORAGE       0.00  3454.25     0  01:46           0        16.2      -0.315
  JK-storage           STORAGE       0.00  1317.12     0  01:37           0        5.25     -18.943
  
  
  **********************
  Node Surcharge Summary
  **********************
  
  Surcharging occurs when water rises above the top of the highest conduit.
  ---------------------------------------------------------------------
                                               Max. Height   Min. Depth
                                   Hours       Above Crown    Below Rim
  Node                 Type      Surcharged         Meters       Meters
  ---------------------------------------------------------------------
  WS02006109           JUNCTION        2.12          0.117        1.703
  WS02006112           JUNCTION        0.49          0.025        1.655
  WS02006228           JUNCTION        2.11          0.147        2.053
  WS02006229           JUNCTION        2.13          0.171        2.279
  WS02006231           JUNCTION        0.61          0.361        1.169
  WS02006232           JUNCTION        2.21          1.480        0.000
  WS02006234           JUNCTION        1.73          1.240        0.000
  WS02006235           JUNCTION        2.13          1.290        0.000
  WS02006238           JUNCTION        2.17          1.430        0.000
  WS02006239           JUNCTION        2.13          1.290        0.000
  WS02006240           JUNCTION        2.14          1.390        0.000
  WS02006242           JUNCTION        2.23          0.820        0.000
  WS02006243           JUNCTION        2.15          0.770        0.000
  WS02006245           JUNCTION        2.14          0.850        0.000
  WS02006247           JUNCTION        2.16          0.760        0.000
  WS02006248           JUNCTION        2.13          0.380        0.000
  WS02006249           JUNCTION        2.15          0.390        0.000
  WS02006251           JUNCTION        0.89          0.451        0.729
  WS02006252           JUNCTION        2.55          1.100        0.000
  WS02006256           JUNCTION        6.75          2.050        0.000
  YS02001580           JUNCTION        0.91          0.450        0.000
  YS02001583           JUNCTION        0.91          0.500        0.000
  YS02001586           JUNCTION        1.03          0.510        0.000
  YS02001590           JUNCTION        1.12          0.750        0.000
  YS02001593           JUNCTION        1.12          0.739        0.101
  YS02001596           JUNCTION        1.24          0.972        0.098
  YS02001600           JUNCTION        1.46          1.190        0.000
  YS02001601           JUNCTION        1.75          1.440        0.000
  YS02001602           JUNCTION        1.68          1.270        0.000
  YS02001605           JUNCTION        1.64          1.180        0.000
  YS02001607           JUNCTION        1.02          0.673        0.007
  YS02001610           JUNCTION        1.06          0.680        0.000
  YS02001613           JUNCTION        1.01          0.677        0.023
  YS02001616           JUNCTION        0.96          0.610        0.000
  YS02001619           JUNCTION        0.94          0.610        0.000
  YS02001622           JUNCTION        0.93          0.620        0.000
  YS02001625           JUNCTION        1.18          0.780        0.000
  YS02001629           JUNCTION        0.81          0.470        0.000
  YS02001633           JUNCTION        1.18          1.060        0.000
  YS02001641           JUNCTION        1.04          1.011        0.089
  YS02001644           JUNCTION        0.97          0.920        0.000
  YS02001647           JUNCTION        0.68          0.812        0.088
  YS02001649           JUNCTION        0.77          1.050        0.000
  YS02001652           JUNCTION        0.51          1.130        0.000
  YS02001655           JUNCTION        0.38          1.200        0.000
  YS02001658           JUNCTION        0.28          1.300        0.000
  YS02001661           JUNCTION        0.15          1.390        0.000
  YS02001664           JUNCTION        0.01          1.310        0.000
  YS02001745           JUNCTION        0.01          1.350        0.000
  YS02001748           JUNCTION        0.19          1.190        0.000
  YS02001751           JUNCTION        0.30          1.200        0.000
  YS02001754           JUNCTION        0.39          1.150        0.000
  YS02001757           JUNCTION        0.79          1.210        0.000
  YS02001759           JUNCTION        0.67          1.210        0.000
  YS02001762           JUNCTION        0.63          1.150        0.000
  YS02001765           JUNCTION        0.56          1.100        0.000
  YS02001767           JUNCTION        0.51          1.030        0.000
  YS02001770           JUNCTION        0.49          0.920        0.000
  YS02001774           JUNCTION        0.63          1.008        0.042
  YS02001779           JUNCTION        0.42          0.680        0.000
  YS02001783           JUNCTION        0.76          0.728        0.872
  YS02001784           JUNCTION        0.74          0.523        0.967
  YS02001786           JUNCTION        0.62          0.208        1.222
  YS02001882           JUNCTION        0.70          0.830        0.000
  YS02001884           JUNCTION        0.71          0.870        0.000
  YS02001887           JUNCTION        0.75          0.889        0.061
  YS02001890           JUNCTION        0.77          0.760        0.000
  YS02001895           JUNCTION        0.69          0.750        0.000
  YS02001898           JUNCTION        0.68          0.740        0.000
  YS02001901           JUNCTION        0.74          0.816        0.054
  YS02001904           JUNCTION        0.72          0.656        0.194
  YS02001907           JUNCTION        1.00          0.950        0.000
  YS02001910           JUNCTION        0.80          1.079        0.021
  YS02001915           JUNCTION        0.70          1.000        0.000
  YS02001918           JUNCTION        0.60          0.810        0.000
  YS02001920           JUNCTION        0.62          1.140        0.000
  YS02001923           JUNCTION        0.26          0.820        0.000
  YS02001926           JUNCTION        0.28          0.900        0.000
  YS02001929           JUNCTION        0.15          0.780        0.000
  YS02006553           JUNCTION        1.02          1.044        0.146
  YS02006556           JUNCTION        0.89          1.072        0.278
  YS02006558           JUNCTION        0.88          1.086        0.314
  YS02006561           JUNCTION        0.56          0.435        0.715
  YS02163301           JUNCTION        1.16          0.954        0.076
  YS02163601           JUNCTION        1.22          1.080        0.000
  YS02164001           JUNCTION        1.06          1.003        0.097
  
  
  *********************
  Node Flooding Summary
  *********************
  
  Flooding refers to all water that overflows a node, whether it ponds or not.
  --------------------------------------------------------------------------
                                                             Total   Maximum
                                 Maximum   Time of Max       Flood    Ponded
                        Hours       Rate    Occurrence      Volume     Depth
  Node                 Flooded       LPS   days hr:min    10^6 ltr    Meters
  --------------------------------------------------------------------------
  WS02006232              0.01      0.63      0  01:52       0.000     0.000
  WS02006234              0.01     10.30      0  01:52       0.000     0.000
  WS02006235              0.01      8.45      0  02:06       0.000     0.000
  WS02006238              0.01      5.65      0  01:52       0.000     0.000
  WS02006239              0.01      1.63      0  01:52       0.000     0.000
  WS02006240              0.01      1.55      0  01:52       0.000     0.000
  WS02006242              0.01      5.22      0  02:35       0.000     0.000
  WS02006243              0.01      2.99      0  02:35       0.000     0.000
  WS02006245              0.01      0.35      0  02:40       0.000     0.000
  WS02006247              0.01      0.15      0  02:40       0.000     0.000
  WS02006248              0.01     25.68      0  01:52       0.000     0.000
  WS02006249              0.66     50.63      0  01:36       0.026     0.000
  WS02006252              0.01    254.39      0  01:27       0.001     0.000
  WS02006256              0.96    293.19      0  00:00       0.401     0.000
  YS02001580              0.01     70.06      0  01:32       0.000     0.000
  YS02001583              0.01    191.48      0  01:32       0.000     0.000
  YS02001586              0.76    742.37      0  01:41       0.909     0.000
  YS02001590              0.01      2.18      0  01:32       0.000     0.000
  YS02001600              0.01      3.00      0  01:32       0.000     0.000
  YS02001601              0.92   1858.11      0  01:40       2.430     0.000
  YS02001602              0.72     62.01      0  02:07       0.149     0.000
  YS02001605              0.01      0.39      0  01:32       0.000     0.000
  YS02001610              0.65    947.82      0  01:44       1.316     0.000
  YS02001616              0.15    138.14      0  01:32       0.001     0.000
  YS02001619              0.17    231.84      0  01:41       0.081     0.000
  YS02001622              0.01    198.34      0  01:32       0.000     0.000
  YS02001625              0.53   1503.80      0  01:46       1.702     0.000
  YS02001629              0.23    531.49      0  01:38       0.221     0.000
  YS02001633              0.01      0.13      0  01:38       0.000     0.000
  YS02001644              0.28   2182.23      0  01:39       1.166     0.000
  YS02001649              0.02    451.52      0  01:35       0.017     0.000
  YS02001652              0.01     39.03      0  01:35       0.000     0.000
  YS02001655              0.01    383.89      0  01:34       0.001     0.000
  YS02001658              0.01    370.69      0  01:35       0.001     0.000
  YS02001661              0.01    310.29      0  01:35       0.000     0.000
  YS02001664              0.01    316.10      0  01:35       0.001     0.000
  YS02001745              0.01    364.77      0  01:35       0.001     0.000
  YS02001748              0.01    555.90      0  01:35       0.002     0.000
  YS02001751              0.01     36.49      0  01:35       0.000     0.000
  YS02001754              0.01     83.07      0  01:35       0.000     0.000
  YS02001757              0.01    124.94      0  01:35       0.001     0.000
  YS02001759              0.01      5.31      0  01:35       0.000     0.000
  YS02001762              0.01     18.63      0  01:35       0.000     0.000
  YS02001765              0.01     10.37      0  01:35       0.000     0.000
  YS02001767              0.01     75.87      0  01:34       0.000     0.000
  YS02001770              0.12    469.11      0  01:38       0.122     0.000
  YS02001779              0.26    851.03      0  01:42       0.521     0.000
  YS02001882              0.01     28.06      0  01:33       0.000     0.000
  YS02001884              0.01     24.56      0  01:33       0.000     0.000
  YS02001890              0.27    737.43      0  01:38       0.338     0.000
  YS02001895              0.01     61.97      0  01:33       0.000     0.000
  YS02001898              0.01     83.34      0  01:33       0.000     0.000
  YS02001907              0.53   2989.48      0  01:39       2.684     0.000
  YS02001915              0.07    213.75      0  01:33       0.014     0.000
  YS02001918              0.01    203.05      0  01:34       0.003     0.000
  YS02001920              0.01     53.09      0  01:34       0.000     0.000
  YS02001923              0.01    126.13      0  01:34       0.000     0.000
  YS02001926              0.01    665.35      0  01:34       0.005     0.000
  YS02001929              0.01    931.52      0  01:34       0.003     0.000
  YS02163601              0.01      4.53      0  01:34       0.000     0.000
  
  
  **********************
  Storage Volume Summary
  **********************
  
  ------------------------------------------------------------------------------------------------
                         Average    Avg   Evap  Exfil     Maximum    Max    Time of Max    Maximum
                          Volume   Pcnt   Pcnt   Pcnt      Volume   Pcnt     Occurrence    Outflow
  Storage Unit           1000 m³   Full   Loss   Loss     1000 m³   Full    days hr:min        LPS
  ------------------------------------------------------------------------------------------------
  CC-storage               1.190   18.6    0.0    0.0       3.396   53.0       0  02:30    1783.53
  JK-storage               0.001    0.3    0.0    0.0       0.150   51.6       0  00:00    2300.00
  
  
  ***********************
  Outfall Loading Summary
  ***********************
  
  -----------------------------------------------------------
                         Flow       Avg       Max       Total
                         Freq      Flow      Flow      Volume
  Outfall Node           Pcnt       LPS       LPS    10^6 ltr
  -----------------------------------------------------------
  CC-1                  57.48    683.00    683.00       6.269
  CC-2                  57.48    683.00    683.00       6.269
  JK-1                  20.75    927.29   1000.00       2.758
  JK-2                  20.75    927.29   1000.00       2.758
  WSC                   99.95    253.83    517.70       4.975
  -----------------------------------------------------------
  System                51.28   3474.41   3883.70      23.030
  
  
  ********************
  Link Flow Summary
  ********************
  
  -----------------------------------------------------------------------------
                                 Maximum  Time of Max   Maximum    Max/    Max/
                                  |Flow|   Occurrence   |Veloc|    Full    Full
  Link                 Type          LPS  days hr:min     m/sec    Flow   Depth
  -----------------------------------------------------------------------------
  1                    CONDUIT    517.70     0  02:12      2.77    0.18    0.29
  WS02003060WS02003069 CONDUIT    516.11     0  02:11      1.61    0.20    0.33
  WS02003066WSF200     CONDUIT    499.60     0  02:10      2.80    0.08    0.21
  WS02003067WS02003066 CONDUIT    499.62     0  02:10      1.16    0.16    0.41
  WS02003069WS02003072 CONDUIT    516.21     0  02:11      1.34    0.25    0.37
  WS02003072WS02003073 CONDUIT    516.03     0  02:12      1.40    1.11    0.36
  WS02004401WS02004402 CONDUIT    501.43     0  02:07      1.22    0.60    0.84
  WS02004402WS02004403 CONDUIT    501.16     0  02:07      1.24    0.72    0.86
  WS02004403WS02004404 CONDUIT    500.95     0  02:08      1.24    0.36    0.90
  WS02004404WS02004405 CONDUIT    501.06     0  02:08      1.45    4.91    0.94
  WS02004405WS02004406 CONDUIT    501.17     0  02:08      1.46    0.99    0.93
  WS02004406WS02004407 CONDUIT    500.74     0  02:08      1.00    0.22    0.61
  WS02004407WS02004409 CONDUIT    500.47     0  02:08      1.59    0.18    0.46
  WS02004409WS02004410 CONDUIT    500.22     0  02:09      1.06    0.65    0.65
  WS02004410WS02004411 CONDUIT    500.11     0  02:09      1.12    0.68    0.66
  WS02004411WS02004412 CONDUIT    499.96     0  02:09      1.22    0.71    0.67
  WS02004412WS02004413 CONDUIT    499.89     0  02:09      1.22    0.33    0.76
  WS02004413WS02003067 CONDUIT    499.59     0  02:10      1.07    0.21    0.58
  WS02006109WS02006110 CONDUIT    506.63     0  01:52      1.01    0.97    0.99
  WS02006110WS02006113 CONDUIT    506.57     0  01:38      1.22    0.46    0.77
  WS02006111WS02006112 CONDUIT    504.88     0  02:06      1.95    0.24    0.67
  WS02006112WS02006115 CONDUIT    507.96     0  01:48      0.82    0.30    0.85
  WS02006113WS02006111 CONDUIT    519.90     0  01:52      2.40    0.62    0.45
  WS02006115WS02006116 CONDUIT    502.26     0  02:07      1.29    0.64    0.73
  WS02006116WS02004401 CONDUIT    501.68     0  02:07      1.21    0.69    0.81
  WS02006228WS02006109 CONDUIT    505.42     0  01:52      1.06    2.21    1.00
  WS02006229WS02006228 CONDUIT    505.56     0  01:52      1.12    1.67    1.00
  WS02006230WS02006229 CONDUIT    504.82     0  01:52      1.31   11.23    1.00
  WS02006231WS02006230 CONDUIT    533.13     0  02:06      1.43    8.09    0.98
  WS02006232WS02006231 CONDUIT    523.94     0  02:06      1.36    1.10    1.00
  WS02006234WS02006232 CONDUIT    522.11     0  01:52      1.39    1.06    1.00
  WS02006235WS02006234 CONDUIT    514.95     0  02:06      1.34    5.43    1.00
  WS02006238WS02006235 CONDUIT    431.92     0  02:35      1.45    0.96    1.00
  WS02006239WS02006238 CONDUIT    416.47     0  02:28      1.11    1.33    1.00
  WS02006240WS02006239 CONDUIT    415.04     0  02:38      1.24    1.31    1.00
  WS02006242WS02006240 CONDUIT    414.19     0  02:28      1.16    1.64    1.00
  WS02006243WS02006242 CONDUIT    414.32     0  02:28      1.38    0.89    1.00
  WS02006245WS02006243 CONDUIT    414.40     0  02:28      1.44    1.23    1.00
  WS02006247WS02006245 CONDUIT    424.90     0  01:32      1.43    3.37    1.00
  WS02006248WS02006247 CONDUIT    423.55     0  01:32      1.42    0.92    1.00
  WS02006249WS02006248 CONDUIT    415.08     0  02:38      1.36    2.27    1.00
  WS02006251WS02006249 CONDUIT    459.02     0  00:00      2.09    1.32    1.00
  WS02006252WS02006251 CONDUIT    406.36     0  01:36     25.61    1.49    1.00
  WS02006256WS02006235 CONDUIT    288.91     0  00:00      4.23    3.06    1.00
  WSF200WS02003060     CONDUIT    499.67     0  02:10      2.02    0.11    0.27
  YS02001580YS02001583 CONDUIT    149.87     0  01:32      0.85    0.58    1.00
  YS02001583YS02001586 CONDUIT    193.82     0  01:32      0.86    0.29    1.00
  YS02001586YS02001590 CONDUIT    318.96     0  01:52      1.28    0.56    1.00
  YS02001590YS02001593 CONDUIT    318.86     0  01:52      1.13    2.00    1.00
  YS02001593YS02001596 CONDUIT    317.92     0  02:13      1.75    0.50    1.00
  YS02001596YS02001600 CONDUIT    317.99     0  01:42      1.24    0.62    1.00
  YS02001600YS02001601 CONDUIT    318.17     0  02:07      1.13    0.55    1.00
  YS02001601YS02001602 CONDUIT    572.59     0  01:32      2.03    2.07    1.00
  YS02001602YS02001605 CONDUIT    572.44     0  01:32      2.02   12.11    1.00
  YS02001605YS02001607 CONDUIT    572.40     0  01:32      2.02    3.14    1.00
  YS02001607YS02001610 CONDUIT    552.08     0  01:32      0.71    0.52    1.00
  YS02001610YS02001613 CONDUIT    611.92     0  01:44      0.78    0.71    1.00
  YS02001613YS02001616 CONDUIT    611.51     0  01:44      0.78    0.52    1.00
  YS02001616YS02001619 CONDUIT    611.72     0  01:44      0.78    1.06    1.00
  YS02001619YS02001622 CONDUIT   1053.65     0  01:43      1.34    1.55    1.00
  YS02001622YS02001625 CONDUIT   1053.47     0  01:43      1.34    0.56    1.00
  YS02001625YS02001629 CONDUIT    958.43     0  01:32      1.22    0.46    1.00
  YS02001629YS02163301 CONDUIT    941.85     0  02:11      1.20    1.16    1.00
  YS02001633YS02163601 CONDUIT   1431.41     0  01:33      1.82    1.50    1.00
  YS02001641YS02001644 CONDUIT   1429.12     0  01:33      1.82    4.62    1.00
  YS02001644YS02001647 CONDUIT   1924.89     0  01:33      2.45    1.13    1.00
  YS02001647YS02001649 CONDUIT   1917.26     0  01:33      2.44    1.01    1.00
  YS02001649YS02001757 CONDUIT   2157.63     0  01:34      2.75    1.31    1.00
  YS02001652YS02001649 CONDUIT   1271.83     0  01:38      1.62    0.63    1.00
  YS02001655YS02001652 CONDUIT   1271.82     0  01:38      1.62    0.62    1.00
  YS02001658YS02001655 CONDUIT   1271.56     0  01:38      2.02    0.54    1.00
  YS02001661YS02001658 CONDUIT   1271.76     0  01:38      2.43    0.50    1.00
  YS02001664YS02001661 CONDUIT   1271.62     0  01:38      2.54    0.40    1.00
  YS02001745YS02001748 CONDUIT    835.57     0  01:38      2.39    0.32    1.00
  YS02001748YS02001751 CONDUIT    836.11     0  01:38      1.86    0.42    1.00
  YS02001751YS02001754 CONDUIT    835.64     0  01:38      1.55    0.40    1.00
  YS02001754YS02001757 CONDUIT    836.06     0  01:38      1.06    0.34    1.00
  YS02001757CaochengTiaoxuchi CONDUIT   3454.25     0  01:46      7.52    1.50    1.00
  YS02001759YS02001757 CONDUIT   1511.38     0  01:35      1.92    1.07    1.00
  YS02001762YS02001759 CONDUIT    830.73     0  01:50      1.06    0.96    1.00
  YS02001765YS02001762 CONDUIT    830.58     0  01:50      1.06    0.78    1.00
  YS02001767YS02001765 CONDUIT    830.15     0  01:50      1.06    1.04    1.00
  YS02001770YS02001767 CONDUIT    829.44     0  01:50      1.06    3.29    1.00
  YS02001774YS02001770 CONDUIT    851.52     0  01:42      1.08    0.54    1.00
  YS02001779YS02001774 CONDUIT    851.09     0  01:42      1.08    0.43    1.00
  YS02001783YS02001784 CONDUIT   1175.19     0  01:37      2.34    1.62    1.00
  YS02001784YS02001785 CONDUIT   1176.70     0  01:37      2.34    2.74    1.00
  YS02001786YS02001788 CONDUIT   1176.92     0  01:37      2.50    2.27    0.89
  YS02001788YS02001790 CONDUIT   1187.97     0  01:37      2.73    0.88    0.85
  YS02001790YS02001791 CONDUIT   1302.04     0  01:37      3.44    1.42    0.71
  YS02001791YS02001793 CONDUIT   1263.62     0  01:37      6.43    0.54    0.43
  YS02001793JiankangQianchi CONDUIT   1317.12     0  01:37     24.67    0.10    0.50
  YS02001882YS02001884 CONDUIT    111.57     0  01:33      0.18    0.13    1.00
  YS02001884YS02001887 CONDUIT    143.77     0  01:32      0.18    0.19    1.00
  YS02001887YS02001890 CONDUIT   1255.60     0  01:38      1.60    2.15    1.00
  YS02001890YS02001895 CONDUIT    560.17     0  01:33      0.71    0.26    1.00
  YS02001895YS02001898 CONDUIT    559.49     0  01:33      0.71    0.97    1.00
  YS02001898YS02001901 CONDUIT    563.90     0  01:33      0.72    0.36    1.00
  YS02001901YS02001904 CONDUIT    566.21     0  01:33      0.72    0.88    1.00
  YS02001904YS02001907 CONDUIT    567.94     0  01:33      0.72    0.20    1.00
  YS02001907YS02006553 CONDUIT    793.48     0  02:07      0.88    0.93    1.00
  YS02001910YS02001907 CONDUIT   1992.76     0  01:40      2.54    1.12    1.00
  YS02001915YS02001910 CONDUIT   1992.84     0  01:41      2.54    0.99    1.00
  YS02001918YS02001915 CONDUIT    680.44     0  01:40      0.87    0.38    1.00
  YS02001920YS02001918 CONDUIT    680.78     0  01:40      0.87    0.66    1.00
  YS02001923YS02001920 CONDUIT    681.64     0  01:34      0.93    0.31    1.00
  YS02001926YS02001923 CONDUIT    882.07     0  01:34      1.34    1.26    1.00
  YS02001929YS02001926 CONDUIT    768.59     0  01:34      1.21    0.36    1.00
  YS02006553YS02006556 CONDUIT    792.82     0  02:07      1.01    0.68    1.00
  YS02006556YS02006558 CONDUIT    791.83     0  02:07      1.01    0.63    1.00
  YS02006558YS02006561 CONDUIT   1192.06     0  01:34      4.22    2.63    1.00
  YS02006561YS02001783 CONDUIT   1175.67     0  01:37      2.34    0.61    1.00
  YS02163301YS02001633 CONDUIT    941.86     0  02:11      1.20    0.89    1.00
  YS02163601YS02164001 CONDUIT   1430.93     0  01:33      1.82    1.27    1.00
  YS02164001YS02001641 CONDUIT   1429.24     0  01:33      1.82    1.95    1.00
  CC-R1                PUMP       683.00     0  00:00              1.00
  CC-R2                PUMP       683.00     0  00:00              1.00
  CC-S1                PUMP       200.00     0  00:00              1.00
  CC-S2                PUMP       200.00     0  00:00              1.00
  JK-R1                PUMP      1000.00     0  00:00              1.00
  JK-R2                PUMP      1000.00     0  00:00              1.00
  JK-S                 PUMP       300.00     0  00:00              1.00
  
  
  ***************************
  Flow Classification Summary
  ***************************
  
  -------------------------------------------------------------------------------------
                      Adjusted    ---------- Fraction of Time in Flow Class ---------- 
                       /Actual         Up    Down  Sub   Sup   Up    Down  Norm  Inlet 
  Conduit               Length    Dry  Dry   Dry   Crit  Crit  Crit  Crit  Ltd   Ctrl  
  -------------------------------------------------------------------------------------
  1                       1.00   0.00  0.00  0.00  0.00  1.00  0.00  0.00  0.33  0.00
  WS02003060WS02003069    1.00   0.00  0.00  0.00  0.98  0.02  0.00  0.00  0.71  0.00
  WS02003066WSF200        1.00   0.05  0.00  0.00  0.00  0.95  0.00  0.00  0.92  0.00
  WS02003067WS02003066    1.00   0.05  0.00  0.00  0.95  0.00  0.00  0.00  0.00  0.00
  WS02003069WS02003072    1.00   0.00  0.00  0.00  0.99  0.01  0.00  0.00  0.72  0.00
  WS02003072WS02003073    1.00   0.00  0.00  0.00  0.00  0.00  0.00  1.00  0.00  0.00
  WS02004401WS02004402    1.00   0.02  0.00  0.00  0.98  0.00  0.00  0.00  0.00  0.00
  WS02004402WS02004403    1.00   0.02  0.00  0.00  0.98  0.00  0.00  0.00  0.00  0.00
  WS02004403WS02004404    1.00   0.00  0.03  0.00  0.97  0.00  0.00  0.00  0.00  0.00
  WS02004404WS02004405    1.00   0.00  0.00  0.00  1.00  0.00  0.00  0.00  0.00  0.00
  WS02004405WS02004406    1.00   0.00  0.00  0.00  1.00  0.00  0.00  0.00  0.00  0.00
  WS02004406WS02004407    1.00   0.00  0.03  0.00  0.97  0.00  0.00  0.00  0.00  0.00
  WS02004407WS02004409    1.00   0.03  0.00  0.00  0.95  0.01  0.00  0.00  0.95  0.00
  WS02004409WS02004410    1.00   0.03  0.00  0.00  0.96  0.00  0.00  0.00  0.00  0.00
  WS02004410WS02004411    1.00   0.04  0.00  0.00  0.96  0.00  0.00  0.00  0.00  0.00
  WS02004411WS02004412    1.00   0.04  0.00  0.00  0.96  0.00  0.00  0.00  0.00  0.00
  WS02004412WS02004413    1.00   0.04  0.00  0.00  0.96  0.00  0.00  0.00  0.00  0.00
  WS02004413WS02003067    1.00   0.04  0.01  0.00  0.00  0.00  0.95  0.00  0.00  0.00
  WS02006109WS02006110    1.00   0.00  0.01  0.00  0.98  0.00  0.01  0.00  0.00  0.00
  WS02006110WS02006113    1.00   0.01  0.01  0.00  0.98  0.00  0.00  0.00  0.00  0.00
  WS02006111WS02006112    1.00   0.02  0.00  0.00  0.98  0.00  0.00  0.00  0.98  0.00
  WS02006112WS02006115    1.00   0.02  0.00  0.00  0.97  0.00  0.00  0.00  0.00  0.00
  WS02006113WS02006111    1.00   0.02  0.00  0.00  0.00  0.98  0.00  0.00  0.11  0.00
  WS02006115WS02006116    1.00   0.02  0.00  0.00  0.97  0.00  0.00  0.01  0.00  0.00
  WS02006116WS02004401    1.00   0.02  0.00  0.00  0.98  0.00  0.00  0.00  0.00  0.00
  WS02006228WS02006109    1.00   0.00  0.00  0.00  1.00  0.00  0.00  0.00  0.00  0.00
  WS02006229WS02006228    1.00   0.00  0.00  0.00  0.99  0.00  0.00  0.01  0.00  0.00
  WS02006230WS02006229    1.00   0.00  0.00  0.00  0.99  0.00  0.00  0.01  0.02  0.00
  WS02006231WS02006230    1.00   0.00  0.00  0.00  0.29  0.00  0.71  0.00  0.00  0.00
  WS02006232WS02006231    1.00   0.00  0.00  0.00  0.99  0.00  0.00  0.00  0.00  0.00
  WS02006234WS02006232    1.00   0.00  0.00  0.00  1.00  0.00  0.00  0.00  0.01  0.00
  WS02006235WS02006234    1.00   0.00  0.00  0.00  0.94  0.00  0.06  0.00  0.00  0.00
  WS02006238WS02006235    1.00   0.00  0.00  0.00  1.00  0.00  0.00  0.00  0.00  0.00
  WS02006239WS02006238    1.00   0.00  0.00  0.00  1.00  0.00  0.00  0.00  0.06  0.00
  WS02006240WS02006239    1.00   0.00  0.00  0.00  0.92  0.00  0.00  0.08  0.29  0.00
  WS02006242WS02006240    1.00   0.00  0.00  0.00  0.92  0.00  0.08  0.00  0.00  0.00
  WS02006243WS02006242    1.00   0.00  0.00  0.00  0.98  0.00  0.00  0.02  0.60  0.00
  WS02006245WS02006243    1.00   0.00  0.00  0.00  0.74  0.00  0.00  0.26  0.00  0.00
  WS02006247WS02006245    1.00   0.00  0.00  0.00  0.96  0.00  0.00  0.04  0.00  0.00
  WS02006248WS02006247    1.00   0.00  0.00  0.00  0.98  0.00  0.00  0.02  0.43  0.00
  WS02006249WS02006248    1.00   0.00  0.00  0.00  0.44  0.00  0.56  0.00  0.00  0.00
  WS02006251WS02006249    1.00   0.00  0.00  0.00  0.99  0.01  0.00  0.00  0.59  0.00
  WS02006252WS02006251    1.00   0.00  0.53  0.00  0.11  0.00  0.36  0.00  0.00  0.00
  WS02006256WS02006235    1.00   0.00  0.00  0.00  0.95  0.05  0.00  0.00  0.01  0.00
  WSF200WS02003060        1.00   0.00  0.05  0.00  0.37  0.58  0.00  0.00  0.66  0.00
  YS02001580YS02001583    1.00   0.19  0.58  0.00  0.23  0.00  0.00  0.00  0.67  0.00
  YS02001583YS02001586    1.00   0.40  0.30  0.00  0.29  0.00  0.00  0.00  0.67  0.00
  YS02001586YS02001590    1.00   0.13  0.00  0.00  0.45  0.04  0.00  0.39  0.34  0.00
  YS02001590YS02001593    1.00   0.13  0.01  0.00  0.16  0.00  0.71  0.00  0.00  0.00
  YS02001593YS02001596    1.00   0.13  0.00  0.00  0.18  0.01  0.00  0.67  0.03  0.00
  YS02001596YS02001600    1.00   0.13  0.00  0.00  0.23  0.01  0.00  0.62  0.03  0.00
  YS02001600YS02001601    1.00   0.13  0.01  0.00  0.86  0.00  0.00  0.00  0.58  0.00
  YS02001601YS02001602    1.00   0.13  0.01  0.00  0.87  0.00  0.00  0.00  0.00  0.00
  YS02001602YS02001605    1.00   0.13  0.00  0.00  0.87  0.00  0.00  0.00  0.00  0.00
  YS02001605YS02001607    1.00   0.14  0.00  0.00  0.86  0.00  0.00  0.00  0.00  0.00
  YS02001607YS02001610    1.00   0.13  0.01  0.00  0.86  0.00  0.00  0.00  0.01  0.00
  YS02001610YS02001613    1.00   0.13  0.00  0.00  0.87  0.00  0.00  0.00  0.00  0.00
  YS02001613YS02001616    1.00   0.13  0.00  0.00  0.87  0.00  0.00  0.00  0.00  0.00
  YS02001616YS02001619    1.00   0.13  0.00  0.00  0.87  0.00  0.00  0.00  0.00  0.00
  YS02001619YS02001622    1.00   0.13  0.00  0.00  0.87  0.00  0.00  0.00  0.27  0.00
  YS02001622YS02001625    1.00   0.13  0.00  0.00  0.87  0.00  0.00  0.00  0.03  0.00
  YS02001625YS02001629    1.00   0.13  0.04  0.00  0.21  0.00  0.63  0.00  0.00  0.00
  YS02001629YS02163301    1.00   0.15  0.01  0.00  0.85  0.00  0.00  0.00  0.00  0.00
  YS02001633YS02163601    1.00   0.00  0.01  0.00  0.99  0.00  0.00  0.00  0.14  0.00
  YS02001641YS02001644    1.00   0.00  0.01  0.00  0.99  0.00  0.00  0.00  0.00  0.00
  YS02001644YS02001647    1.00   0.00  0.16  0.00  0.84  0.00  0.00  0.00  0.00  0.00
  YS02001647YS02001649    1.00   0.00  0.16  0.00  0.51  0.33  0.00  0.00  0.55  0.00
  YS02001649YS02001757    1.00   0.00  0.00  0.00  0.86  0.14  0.00  0.00  0.74  0.00
  YS02001652YS02001649    1.00   0.00  0.00  0.00  0.97  0.03  0.00  0.00  0.71  0.00
  YS02001655YS02001652    1.00   0.00  0.00  0.00  0.22  0.01  0.00  0.77  0.08  0.00
  YS02001658YS02001655    1.00   0.00  0.14  0.00  0.65  0.21  0.00  0.00  0.71  0.00
  YS02001661YS02001658    1.00   0.14  0.00  0.00  0.48  0.39  0.00  0.00  0.74  0.00
  YS02001664YS02001661    1.00   0.13  0.00  0.00  0.70  0.17  0.00  0.00  0.84  0.00
  YS02001745YS02001748    1.00   0.00  0.00  0.00  0.07  0.02  0.00  0.91  0.05  0.00
  YS02001748YS02001751    1.00   0.00  0.00  0.00  0.80  0.20  0.00  0.00  0.82  0.00
  YS02001751YS02001754    1.00   0.00  0.00  0.00  0.16  0.01  0.00  0.83  0.04  0.00
  YS02001754YS02001757    1.00   0.00  0.00  0.00  1.00  0.00  0.00  0.00  0.81  0.00
  YS02001757CaochengTiaoxuchi    1.00   0.00  0.00  0.00  0.22  0.78  0.00  0.00  0.12  0.00
  YS02001759YS02001757    1.00   0.00  0.00  0.00  1.00  0.00  0.00  0.00  0.61  0.00
  YS02001762YS02001759    1.00   0.00  0.00  0.00  1.00  0.00  0.00  0.00  0.04  0.00
  YS02001765YS02001762    1.00   0.00  0.00  0.00  1.00  0.00  0.00  0.00  0.71  0.00
  YS02001767YS02001765    1.00   0.00  0.00  0.00  1.00  0.00  0.00  0.00  0.00  0.00
  YS02001770YS02001767    1.00   0.00  0.00  0.00  1.00  0.00  0.00  0.00  0.00  0.00
  YS02001774YS02001770    1.00   0.00  0.13  0.00  0.71  0.00  0.15  0.00  0.02  0.00
  YS02001779YS02001774    1.00   0.00  0.00  0.00  1.00  0.00  0.00  0.00  0.76  0.00
  YS02001783YS02001784    1.00   0.00  0.17  0.00  0.83  0.00  0.00  0.00  0.54  0.00
  YS02001784YS02001785    1.00   0.00  0.00  0.00  1.00  0.00  0.00  0.00  0.15  0.00
  YS02001786YS02001788    1.00   0.00  0.00  0.00  0.79  0.21  0.00  0.00  0.00  0.00
  YS02001788YS02001790    1.00   0.00  0.00  0.00  0.21  0.79  0.00  0.00  0.78  0.00
  YS02001790YS02001791    1.00   0.00  0.00  0.00  0.01  0.99  0.00  0.00  0.16  0.00
  YS02001791YS02001793    1.00   0.00  0.00  0.00  0.00  1.00  0.00  0.00  0.02  0.00
  YS02001793JiankangQianchi    1.00   0.00  0.00  0.00  0.00  1.00  0.00  0.00  0.12  0.00
  YS02001882YS02001884    1.00   0.15  0.01  0.00  0.85  0.00  0.00  0.00  0.00  0.00
  YS02001884YS02001887    1.00   0.06  0.05  0.00  0.89  0.00  0.00  0.00  0.00  0.00
  YS02001887YS02001890    1.00   0.00  0.00  0.00  0.97  0.00  0.03  0.00  0.00  0.00
  YS02001890YS02001895    1.00   0.00  0.15  0.00  0.85  0.00  0.00  0.00  0.00  0.00
  YS02001895YS02001898    1.00   0.15  0.00  0.00  0.83  0.00  0.01  0.00  0.00  0.00
  YS02001898YS02001901    1.00   0.16  0.00  0.00  0.84  0.00  0.00  0.00  0.00  0.00
  YS02001901YS02001904    1.00   0.16  0.00  0.00  0.84  0.00  0.00  0.00  0.00  0.00
  YS02001904YS02001907    1.00   0.00  0.15  0.00  0.84  0.00  0.00  0.00  0.00  0.00
  YS02001907YS02006553    1.00   0.00  0.02  0.00  0.98  0.00  0.00  0.00  0.00  0.00
  YS02001910YS02001907    1.00   0.00  0.00  0.00  0.97  0.00  0.00  0.03  0.12  0.00
  YS02001915YS02001910    1.00   0.00  0.00  0.00  0.97  0.03  0.00  0.00  0.13  0.00
  YS02001918YS02001915    1.00   0.00  0.01  0.00  0.98  0.02  0.00  0.00  0.71  0.00
  YS02001920YS02001918    1.00   0.00  0.01  0.00  0.99  0.00  0.00  0.00  0.00  0.00
  YS02001923YS02001920    1.00   0.00  0.00  0.00  1.00  0.00  0.00  0.00  0.89  0.00
  YS02001926YS02001923    1.00   0.00  0.07  0.00  0.09  0.00  0.84  0.00  0.00  0.00
  YS02001929YS02001926    1.00   0.00  0.13  0.00  0.87  0.00  0.00  0.00  0.79  0.00
  YS02006553YS02006556    1.00   0.01  0.00  0.00  0.99  0.00  0.00  0.00  0.03  0.00
  YS02006556YS02006558    1.00   0.00  0.00  0.00  1.00  0.00  0.00  0.00  0.00  0.00
  YS02006558YS02006561    1.00   0.16  0.00  0.00  0.08  0.75  0.00  0.00  0.17  0.00
  YS02006561YS02001783    1.00   0.16  0.00  0.00  0.12  0.72  0.00  0.00  0.65  0.00
  YS02163301YS02001633    1.00   0.00  0.15  0.00  0.85  0.00  0.00  0.00  0.00  0.00
  YS02163601YS02164001    1.00   0.00  0.08  0.00  0.92  0.00  0.00  0.00  0.00  0.00
  YS02164001YS02001641    1.00   0.01  0.08  0.00  0.92  0.00  0.00  0.00  0.05  0.00
  
  
  *************************
  Conduit Surcharge Summary
  *************************
  
  ----------------------------------------------------------------------------
                                                           Hours        Hours 
                         --------- Hours Full --------   Above Full   Capacity
  Conduit                Both Ends  Upstream  Dnstream   Normal Flow   Limited
  ----------------------------------------------------------------------------
  WS02003072WS02003073        0.01      0.01      0.01      0.94         0.01
  WS02004404WS02004405        0.01      0.01      0.01      2.80         0.01
  WS02006109WS02006110        0.01      0.01      2.19      0.01         0.01
  WS02006110WS02006113        0.01      0.01      2.17      0.01         0.01
  WS02006111WS02006112        0.01      0.01      2.23      0.01         0.01
  WS02006112WS02006115        0.01      0.01      0.49      0.01         0.01
  WS02006228WS02006109        2.12      2.19      2.12      2.45         2.12
  WS02006229WS02006228        2.11      2.13      2.11      2.35         2.10
  WS02006230WS02006229        2.26      2.30      2.26      3.47         2.26
  WS02006231WS02006230        0.01      0.01      0.68      2.87         0.01
  WS02006232WS02006231        0.61      0.61      2.21      0.62         0.01
  WS02006234WS02006232        2.07      2.07      2.21      0.05         0.42
  WS02006235WS02006234        1.72      1.72      2.13      2.75         0.33
  WS02006238WS02006235        2.15      2.15      2.22      0.01         0.03
  WS02006239WS02006238        2.17      2.21      2.17      2.31         1.60
  WS02006240WS02006239        2.13      2.15      2.13      2.32         1.70
  WS02006242WS02006240        2.14      2.14      2.27      2.39         0.01
  WS02006243WS02006242        2.16      2.16      2.23      0.01         0.05
  WS02006245WS02006243        2.14      2.16      2.15      2.35         1.94
  WS02006247WS02006245        2.14      2.18      2.14      2.50         2.14
  WS02006248WS02006247        2.14      2.14      2.16      0.01         0.05
  WS02006249WS02006248        2.13      2.13      2.15      2.46         0.01
  WS02006251WS02006249        2.15      2.16      2.15      2.41         2.06
  WS02006252WS02006251        2.54      2.54      2.54      2.55         0.01
  WS02006256WS02006235        1.96      2.79      5.43      0.89         0.22
  YS02001580YS02001583        0.91      0.91      0.93      0.01         0.01
  YS02001583YS02001586        0.91      0.91      1.03      0.01         0.01
  YS02001586YS02001590        1.03      1.03      1.12      0.01         0.01
  YS02001590YS02001593        1.12      1.12      1.14      1.26         0.01
  YS02001593YS02001596        1.13      1.13      1.24      0.01         0.01
  YS02001596YS02001600        1.31      1.31      1.46      0.01         0.01
  YS02001600YS02001601        1.56      1.56      1.75      0.01         0.01
  YS02001601YS02001602        1.68      1.68      1.78      1.51         0.01
  YS02001602YS02001605        1.64      1.64      1.68      2.42         0.01
  YS02001605YS02001607        1.61      1.64      1.61      1.73         1.61
  YS02001607YS02001610        1.02      1.02      1.06      0.01         0.01
  YS02001610YS02001613        1.01      1.01      1.06      0.01         0.01
  YS02001613YS02001616        0.96      0.96      1.01      0.01         0.01
  YS02001616YS02001619        0.94      0.94      0.96      0.14         0.06
  YS02001619YS02001622        0.93      0.94      0.93      1.18         0.91
  YS02001622YS02001625        0.93      0.93      1.18      0.01         0.01
  YS02001625YS02001629        0.81      0.81      1.18      0.01         0.01
  YS02001629YS02163301        1.15      1.15      1.16      0.50         0.47
  YS02001633YS02163601        1.18      1.18      1.22      0.67         0.65
  YS02001641YS02001644        0.97      1.04      0.97      1.80         0.96
  YS02001644YS02001647        0.68      0.68      0.97      0.04         0.01
  YS02001647YS02001649        0.68      0.68      0.77      0.01         0.01
  YS02001649YS02001757        0.77      0.77      0.79      0.51         0.49
  YS02001652YS02001649        0.56      0.56      0.77      0.01         0.01
  YS02001655YS02001652        0.38      0.38      0.51      0.01         0.01
  YS02001658YS02001655        0.28      0.28      0.38      0.01         0.01
  YS02001661YS02001658        0.15      0.15      0.28      0.01         0.01
  YS02001664YS02001661        0.01      0.01      0.18      0.01         0.01
  YS02001745YS02001748        0.01      0.01      0.19      0.01         0.01
  YS02001748YS02001751        0.25      0.25      0.30      0.01         0.01
  YS02001751YS02001754        0.30      0.30      0.39      0.01         0.01
  YS02001754YS02001757        0.42      0.42      0.79      0.01         0.01
  YS02001757CaochengTiaoxuchi        0.26      0.79      0.85      0.68         0.13
  YS02001759YS02001757        0.67      0.67      0.79      0.12         0.12
  YS02001762YS02001759        0.63      0.63      0.67      0.01         0.04
  YS02001765YS02001762        0.56      0.56      0.63      0.01         0.01
  YS02001767YS02001765        0.51      0.51      0.56      0.02         0.06
  YS02001770YS02001767        0.51      0.53      0.51      0.79         0.46
  YS02001774YS02001770        0.49      0.49      0.63      0.01         0.01
  YS02001779YS02001774        0.42      0.42      0.63      0.01         0.01
  YS02001783YS02001784        0.74      0.76      0.74      0.92         0.74
  YS02001784YS02001785        0.62      0.74      0.62      1.25         0.62
  YS02001786YS02001788        0.01      0.62      0.01      1.07         0.01
  YS02001790YS02001791        0.01      0.01      0.01      0.72         0.01
  YS02001882YS02001884        0.70      0.70      0.71      0.01         0.01
  YS02001884YS02001887        0.73      0.73      0.75      0.01         0.01
  YS02001887YS02001890        0.77      0.77      0.78      0.23         0.01
  YS02001890YS02001895        0.69      0.69      0.80      0.01         0.01
  YS02001895YS02001898        0.68      0.68      0.69      0.01         0.01
  YS02001898YS02001901        0.69      0.69      0.74      0.01         0.01
  YS02001901YS02001904        0.72      0.72      0.74      0.01         0.01
  YS02001904YS02001907        0.72      0.72      1.03      0.01         0.01
  YS02001907YS02006553        1.27      1.27      1.36      0.01         0.01
  YS02001910YS02001907        0.80      0.80      1.00      0.12         0.13
  YS02001915YS02001910        0.70      0.70      0.80      0.01         0.02
  YS02001918YS02001915        0.60      0.60      0.70      0.01         0.01
  YS02001920YS02001918        0.60      0.60      0.62      0.01         0.01
  YS02001923YS02001920        0.55      0.55      0.62      0.01         0.01
  YS02001926YS02001923        0.26      0.26      0.28      0.01         0.01
  YS02001929YS02001926        0.15      0.15      0.28      0.01         0.01
  YS02006553YS02006556        0.89      0.89      1.02      0.01         0.01
  YS02006556YS02006558        0.95      0.95      1.06      0.01         0.01
  YS02006558YS02006561        0.64      0.88      0.64      1.19         0.64
  YS02006561YS02001783        0.56      0.56      0.76      0.01         0.01
  YS02163301YS02001633        1.16      1.16      1.21      0.01         0.02
  YS02163601YS02164001        1.06      1.06      1.22      0.38         0.01
  YS02164001YS02001641        1.04      1.06      1.04      0.99         0.80
  
  
  ***************
  Pumping Summary
  ***************
  
  ---------------------------------------------------------------------------------------------------------
                                                  Min       Avg       Max     Total     Power    % Time Off
                        Percent   Number of      Flow      Flow      Flow    Volume     Usage    Pump Curve
  Pump                 Utilized   Start-Ups       LPS       LPS       LPS  10^6 ltr     Kw-hr    Low   High
  ---------------------------------------------------------------------------------------------------------
  CC-R1                   32.19          21      0.00    683.00    683.00     6.266    105.63    0.0   66.6
  CC-R2                   32.19          21      0.00    683.00    683.00     6.266    105.63    0.0   66.6
  CC-S1                   32.19          21      0.00    200.00    200.00     1.835     13.29    0.0   23.8
  CC-S2                   32.19          21      0.00    200.00    200.00     1.835     13.29    0.0   23.8
  JK-R1                   12.08        1395      0.00    927.29   1000.00     2.809      6.49    0.0    0.0
  JK-R2                   12.08        1395      0.00    927.29   1000.00     2.809      6.49    0.0    0.0
  JK-S                    12.08        1395      0.00    296.13    300.00     0.986     22.67    0.0    0.0
  

  Analysis begun on:  Wed Feb 26 11:09:41 2025
  Analysis ended on:  Wed Feb 26 11:09:42 2025
  Total elapsed time: 00:00:01