
  EPA STORM WATER MANAGEMENT MODEL - VERSION 5.2 (Build 5.2.4)
  PYSWMM TOOLKIT API - VERSION v1.0 (2023-11-27)
  ------------------------------------------------------------

  WARNING 04: minimum elevation drop used for Conduit WS02004404WS02004405
  WARNING 03: negative offset ignored for Link YS02001904YS02001907
  
  ****************
  Analysis Options
  ****************
  Flow Units ............... LPS
  Process Models:
    Rainfall/Runoff ........ YES
    RDII ................... NO
    Snowmelt ............... NO
    Groundwater ............ NO
    Flow Routing ........... YES
    Ponding Allowed ........ NO
    Water Quality .......... NO
  Infiltration Method ...... HORTON
  Flow Routing Method ...... DYNWAVE
  Surcharge Method ......... EXTRAN
  Starting Date ............ 08/28/2015 08:00:00
  Ending Date .............. 08/28/2015 16:00:00
  Antecedent Dry Days ...... 8.0
  Report Time Step ......... 00:01:00
  Wet Time Step ............ 00:01:00
  Dry Time Step ............ 00:01:00
  Routing Time Step ........ 30.00 sec
  Variable Time Step ....... YES
  Maximum Trials ........... 8
  Number of Threads ........ 4
  Head Tolerance ........... 0.001500 m
  
  
  **************************        Volume         Depth
  Runoff Quantity Continuity     hectare-m            mm
  **************************     ---------       -------
  Total Precipitation ......         2.595        78.222
  Evaporation Loss .........         0.000         0.000
  Infiltration Loss ........         0.103         3.118
  Surface Runoff ...........         2.459        74.126
  Final Storage ............         0.033         0.998
  Continuity Error (%) .....        -0.026
  
  
  **************************        Volume        Volume
  Flow Routing Continuity        hectare-m      10^6 ltr
  **************************     ---------     ---------
  Dry Weather Inflow .......         0.025         0.248
  Wet Weather Inflow .......         2.458        24.585
  Groundwater Inflow .......         0.000         0.000
  RDII Inflow ..............         0.000         0.000
  External Inflow ..........         0.083         0.825
  External Outflow .........         1.912        19.121
  Flooding Loss ............         0.919         9.188
  Evaporation Loss .........         0.000         0.000
  Exfiltration Loss ........         0.000         0.000
  Initial Stored Volume ....         0.243         2.431
  Final Stored Volume ......         0.040         0.397
  Continuity Error (%) .....        -2.199
  
  
  *************************
  Highest Continuity Errors
  *************************
  Node WS02006256 (-14.88%)
  Node JK-storage (-7.79%)
  Node YS02001884 (5.25%)
  Node YS02001583 (-3.51%)
  
  
  ***************************
  Time-Step Critical Elements
  ***************************
  Link WS02006238WS02006235 (36.72%)
  Link YS02001793JiankangQianchi (31.12%)
  Link WS02003066WSF200 (7.03%)
  Link WS02004404WS02004405 (4.97%)
  Link WS02006235WS02006234 (2.73%)
  
  
  ********************************
  Highest Flow Instability Indexes
  ********************************
  Link WS02006229WS02006228 (45)
  Link WS02006256WS02006235 (42)
  Link WS02006252WS02006251 (42)
  Link WS02006113WS02006111 (39)
  Link WS02006235WS02006234 (33)
  
  
  *********************************
  Most Frequent Nonconverging Nodes
  *********************************
  Node CC-1 (50.61%)
  Node CC-2 (50.61%)
  Node JK-1 (50.61%)
  Node JK-2 (50.61%)
  Node WSC (50.61%)
  
  
  *************************
  Routing Time Step Summary
  *************************
  Minimum Time Step           :     0.00 sec
  Average Time Step           :     2.51 sec
  Maximum Time Step           :     6.43 sec
  % of Time in Steady State   :     0.00
  Average Iterations per Step :     5.54
  % of Steps Not Converging   :    50.61
  Time Step Frequencies       :
     30.000 - 13.228 sec      :     0.00 %
     13.228 -  5.833 sec      :     4.70 %
      5.833 -  2.572 sec      :    35.80 %
      2.572 -  1.134 sec      :    41.96 %
      1.134 -  0.500 sec      :    17.54 %
  
  
  ***************************
  Subcatchment Runoff Summary
  ***************************
  
  ------------------------------------------------------------------------------------------------------------------------------
                            Total      Total      Total      Total     Imperv       Perv      Total       Total     Peak  Runoff
                           Precip      Runon       Evap      Infil     Runoff     Runoff     Runoff      Runoff   Runoff   Coeff
  Subcatchment                 mm         mm         mm         mm         mm         mm         mm    10^6 ltr      LPS
  ------------------------------------------------------------------------------------------------------------------------------
  sub60                     78.22       0.00       0.00       1.84      67.64       7.55      75.19        0.99   777.30   0.961
  sub61                     78.22       0.00       0.00       2.67      63.80      10.63      74.43        1.37  1081.77   0.952
  sub62                     78.22       0.00       0.00       1.22      70.68       5.04      75.72        2.07  1526.89   0.968
  sub63                     78.22       0.00       0.00       4.98      54.57      17.71      72.28        1.64  1242.11   0.924
  sub64                     78.22       0.00       0.00       2.51      65.29       9.22      74.51        1.79  1257.79   0.953
  sub65                     78.22       0.00       0.00       2.17      66.80       8.00      74.80        2.06  1405.05   0.956
  sub66                     78.22       0.00       0.00       6.25      54.46      16.43      70.89        3.31  1900.25   0.906
  sub67                     78.22       0.00       0.00       1.17      70.73       5.09      75.82        1.41  1153.06   0.969
  sub68                     78.22       0.00       0.00       2.21      66.09       8.74      74.83        2.06  1567.26   0.957
  sub69                     78.22       0.00       0.00       2.01      66.38       9.73      76.11        2.82  1865.43   0.973
  sub70                     78.22       0.00       0.00       6.82      51.46      19.78      71.24        2.06  1066.41   0.911
  sub71                     78.22       0.00       0.00       1.26      70.64       5.00      75.64        1.98  1353.78   0.967
  sub72                     78.22       0.00       0.00       1.12      71.34       4.35      75.69        1.04   656.61   0.968
  
  
  ******************
  Node Depth Summary
  ******************
  
  ---------------------------------------------------------------------------------
                                 Average  Maximum  Maximum  Time of Max    Reported
                                   Depth    Depth      HGL   Occurrence   Max Depth
  Node                 Type       Meters   Meters   Meters  days hr:min      Meters
  ---------------------------------------------------------------------------------
  WS02003060           JUNCTION     0.24     0.38     5.31     0  03:12        0.38
  WS02003066           JUNCTION     0.20     0.29     5.85     0  03:11        0.29
  WS02003067           JUNCTION     0.51     0.70     6.02     0  03:11        0.70
  WS02003069           JUNCTION     0.27     0.42     5.01     0  03:12        0.42
  WS02003072           JUNCTION     0.33     0.49     4.87     0  03:13        0.49
  WS02003073           JUNCTION     0.19     0.29     4.36     0  03:14        0.29
  WS02004401           JUNCTION     0.61     0.84     6.84     0  03:09        0.84
  WS02004402           JUNCTION     0.64     0.87     6.83     0  03:09        0.87
  WS02004403           JUNCTION     0.66     0.89     6.82     0  03:08        0.89
  WS02004404           JUNCTION     0.73     0.96     6.81     0  03:09        0.96
  WS02004405           JUNCTION     0.72     0.95     6.80     0  03:09        0.95
  WS02004406           JUNCTION     0.73     0.95     6.78     0  03:09        0.95
  WS02004407           JUNCTION     0.18     0.29     6.61     0  03:09        0.29
  WS02004409           JUNCTION     0.41     0.66     6.43     0  03:11        0.66
  WS02004410           JUNCTION     0.43     0.67     6.39     0  03:11        0.67
  WS02004411           JUNCTION     0.45     0.68     6.36     0  03:12        0.68
  WS02004412           JUNCTION     0.47     0.69     6.33     0  03:12        0.69
  WS02004413           JUNCTION     0.63     0.85     6.32     0  03:12        0.85
  WS02006109           JUNCTION     0.69     1.04     7.66     0  03:06        0.97
  WS02006110           JUNCTION     0.68     1.00     7.59     0  03:06        0.94
  WS02006111           JUNCTION     0.19     0.29     6.99     0  03:06        0.29
  WS02006112           JUNCTION     0.77     1.06     6.94     0  03:06        1.05
  WS02006113           JUNCTION     0.29     0.46     7.35     0  03:06        0.45
  WS02006115           JUNCTION     0.50     0.74     6.88     0  03:08        0.74
  WS02006116           JUNCTION     0.58     0.82     6.86     0  03:08        0.82
  WS02006228           JUNCTION     0.69     1.06     7.72     0  03:06        1.02
  WS02006229           JUNCTION     0.66     1.08     7.77     0  03:06        1.03
  WS02006230           JUNCTION     0.68     1.20     7.94     0  03:06        1.12
  WS02006231           JUNCTION     0.48     1.83     8.95     0  02:13        1.83
  WS02006232           JUNCTION     0.62     2.18     9.22     0  01:54        2.18
  WS02006234           JUNCTION     0.56     1.96     9.12     0  01:54        1.96
  WS02006235           JUNCTION     0.61     2.00     9.16     0  01:45        2.00
  WS02006238           JUNCTION     0.64     2.15     9.29     0  01:45        2.15
  WS02006239           JUNCTION     0.61     2.03     9.24     0  02:13        2.03
  WS02006240           JUNCTION     0.57     2.10     9.39     0  02:53        2.10
  WS02006242           JUNCTION     0.64     1.55     8.82     0  01:45        1.55
  WS02006243           JUNCTION     0.56     1.48     8.90     0  01:45        1.48
  WS02006245           JUNCTION     0.56     1.56     9.04     0  02:12        1.56
  WS02006247           JUNCTION     0.58     1.47     8.97     0  01:53        1.47
  WS02006248           JUNCTION     0.55     1.10     8.69     0  01:41        1.10
  WS02006249           JUNCTION     0.57     1.09     8.69     0  01:41        1.09
  WS02006251           JUNCTION     0.57     1.54     9.21     0  01:54        1.39
  WS02006252           JUNCTION     0.36     1.50     9.74     0  00:00        1.50
  WS02006256           JUNCTION     1.16     2.35     9.28     0  00:00        2.35
  WSF200               JUNCTION     0.18     0.29     5.52     0  03:12        0.29
  YS02001580           JUNCTION     0.16     1.05     9.59     0  02:08        0.78
  YS02001583           JUNCTION     0.19     1.14     9.64     0  02:08        0.87
  YS02001586           JUNCTION     0.31     1.13     9.30     0  02:08        1.13
  YS02001590           JUNCTION     0.42     1.40     9.26     0  02:08        1.40
  YS02001593           JUNCTION     0.35     1.46     9.32     0  02:53        1.37
  YS02001596           JUNCTION     0.48     1.80     9.22     0  02:53        1.67
  YS02001600           JUNCTION     0.58     1.87     9.00     0  02:08        1.87
  YS02001601           JUNCTION     0.77     2.06     8.90     0  02:08        2.06
  YS02001602           JUNCTION     0.66     1.87     8.77     0  02:12        1.87
  YS02001605           JUNCTION     0.61     1.78     8.68     0  02:28        1.78
  YS02001607           JUNCTION     0.57     1.68     8.53     0  02:28        1.68
  YS02001610           JUNCTION     0.61     1.68     8.48     0  02:13        1.68
  YS02001613           JUNCTION     0.57     1.70     8.54     0  02:12        1.70
  YS02001616           JUNCTION     0.50     1.61     8.52     0  02:22        1.61
  YS02001619           JUNCTION     0.48     1.61     8.54     0  02:12        1.61
  YS02001622           JUNCTION     0.47     1.62     8.52     0  02:28        1.62
  YS02001625           JUNCTION     0.71     1.78     8.38     0  02:13        1.78
  YS02001629           JUNCTION     0.61     1.85     8.40     0  02:16        1.85
  YS02001633           JUNCTION     0.68     2.08     8.53     0  02:21        2.08
  YS02001641           JUNCTION     0.63     2.02     8.45     0  02:28        1.94
  YS02001644           JUNCTION     0.62     1.92     8.35     0  02:17        1.92
  YS02001647           JUNCTION     0.39     1.76     8.37     0  02:23        1.76
  YS02001649           JUNCTION     0.44     2.05     8.44     0  02:28        2.05
  YS02001652           JUNCTION     0.32     1.88     8.48     0  02:24        1.87
  YS02001655           JUNCTION     0.23     1.70     8.55     0  02:24        1.69
  YS02001658           JUNCTION     0.18     1.58     8.72     0  02:17        1.48
  YS02001661           JUNCTION     0.20     1.31     8.72     0  02:24        1.30
  YS02001664           JUNCTION     0.09     0.83     8.76     0  02:24        0.81
  YS02001745           JUNCTION     0.10     0.93     8.45     0  02:24        0.93
  YS02001748           JUNCTION     0.15     1.72     8.80     0  02:18        1.34
  YS02001751           JUNCTION     0.19     1.63     8.51     0  02:18        1.51
  YS02001754           JUNCTION     0.25     1.83     8.44     0  02:16        1.74
  YS02001757           JUNCTION     0.44     2.06     8.32     0  02:23        2.05
  YS02001759           JUNCTION     0.38     2.07     8.44     0  02:24        2.07
  YS02001762           JUNCTION     0.37     2.06     8.46     0  02:28        2.06
  YS02001765           JUNCTION     0.35     2.10     8.55     0  02:28        2.10
  YS02001767           JUNCTION     0.34     2.03     8.52     0  02:15        2.03
  YS02001770           JUNCTION     0.36     1.95     8.44     0  02:18        1.95
  YS02001774           JUNCTION     0.42     2.00     8.42     0  02:25        2.00
  YS02001779           JUNCTION     0.24     1.68     8.37     0  02:15        1.68
  YS02001783           JUNCTION     0.35     1.56     7.70     0  02:28        1.52
  YS02001784           JUNCTION     0.36     1.81     7.87     0  02:28        1.13
  YS02001786           JUNCTION     0.29     0.91     6.94     0  02:14        0.88
  YS02001788           JUNCTION     0.21     0.62     6.60     0  02:23        0.62
  YS02001790           JUNCTION     0.25     0.73     6.37     0  02:25        0.72
  YS02001791           JUNCTION     0.15     0.44     5.91     0  02:25        0.44
  YS02001793           JUNCTION     0.09     0.26     5.09     0  02:25        0.25
  YS02001882           JUNCTION     0.44     1.83     8.55     0  02:28        1.83
  YS02001884           JUNCTION     0.52     1.82     8.44     0  02:28        1.78
  YS02001887           JUNCTION     0.60     1.90     8.43     0  02:21        1.90
  YS02001890           JUNCTION     0.62     1.81     8.32     0  02:14        1.81
  YS02001895           JUNCTION     0.41     1.75     8.50     0  02:28        1.75
  YS02001898           JUNCTION     0.41     1.63     8.37     0  02:28        1.57
  YS02001901           JUNCTION     0.52     1.71     8.32     0  02:28        1.67
  YS02001904           JUNCTION     0.50     1.66     8.29     0  02:28        1.63
  YS02001907           JUNCTION     0.80     1.96     8.25     0  02:14        1.96
  YS02001910           JUNCTION     0.62     2.01     8.52     0  02:24        2.00
  YS02001915           JUNCTION     0.45     2.00     8.72     0  02:24        2.00
  YS02001918           JUNCTION     0.28     1.81     8.88     0  02:15        1.71
  YS02001920           JUNCTION     0.36     2.14     9.15     0  02:15        1.78
  YS02001923           JUNCTION     0.22     2.03     9.29     0  02:15        1.57
  YS02001926           JUNCTION     0.24     1.90     9.35     0  02:15        1.41
  YS02001929           JUNCTION     0.15     1.78     9.47     0  02:15        1.19
  YS02006553           JUNCTION     0.81     2.12     8.41     0  02:28        2.00
  YS02006556           JUNCTION     0.78     2.39     8.70     0  02:28        2.39
  YS02006558           JUNCTION     0.82     2.50     8.77     0  02:28        2.50
  YS02006561           JUNCTION     0.22     1.19     7.85     0  02:28        0.91
  YS02163301           JUNCTION     0.63     2.03     8.55     0  02:28        2.03
  YS02163601           JUNCTION     0.70     2.08     8.48     0  02:28        2.04
  YS02164001           JUNCTION     0.63     2.07     8.53     0  02:28        1.94
  CC-1                 OUTFALL      0.00     0.00     0.00     0  00:00        0.00
  CC-2                 OUTFALL      0.00     0.00     0.00     0  00:00        0.00
  JK-1                 OUTFALL      0.00     0.00     0.00     0  00:00        0.00
  JK-2                 OUTFALL      0.00     0.00     0.00     0  00:00        0.00
  WSC                  OUTFALL      0.19     0.29     0.96     0  03:15        0.29
  CC-storage           STORAGE      0.25     1.03     6.53     0  02:51        1.03
  JK-storage           STORAGE      0.02     2.99     3.79     0  00:00        0.68
  
  
  *******************
  Node Inflow Summary
  *******************
  
  -------------------------------------------------------------------------------------------------
                                  Maximum  Maximum                  Lateral       Total        Flow
                                  Lateral    Total  Time of Max      Inflow      Inflow     Balance
                                   Inflow   Inflow   Occurrence      Volume      Volume       Error
  Node                 Type           LPS      LPS  days hr:min    10^6 ltr    10^6 ltr     Percent
  -------------------------------------------------------------------------------------------------
  WS02003060           JUNCTION     16.53   541.73     0  03:12       0.471        5.46       0.042
  WS02003066           JUNCTION      0.00   524.73     0  03:13           0        4.99       0.031
  WS02003067           JUNCTION      0.00   524.75     0  03:12           0           5       0.085
  WS02003069           JUNCTION      0.32   541.81     0  03:12     0.00912        5.47       0.079
  WS02003072           JUNCTION      0.00   541.74     0  03:13           0        5.46       0.141
  WS02003073           JUNCTION      1.82   543.62     0  03:14      0.0519        5.51       0.109
  WS02004401           JUNCTION      0.00   533.43     0  03:07           0         5.1       0.209
  WS02004402           JUNCTION      0.00   531.23     0  03:07           0        5.09       0.211
  WS02004403           JUNCTION      0.00   530.09     0  03:09           0        5.08       0.205
  WS02004404           JUNCTION      0.16   529.98     0  03:09     0.00462        5.08       0.179
  WS02004405           JUNCTION      0.04   529.69     0  03:09     0.00109        5.07       0.241
  WS02004406           JUNCTION      0.00   529.74     0  03:09           0        5.06       0.424
  WS02004407           JUNCTION      0.00   529.32     0  03:09           0        5.03       0.024
  WS02004409           JUNCTION      0.00   529.20     0  03:09           0        5.03       0.058
  WS02004410           JUNCTION      0.00   527.81     0  03:10           0        5.03       0.096
  WS02004411           JUNCTION      0.00   526.79     0  03:10           0        5.02       0.118
  WS02004412           JUNCTION      0.00   525.32     0  03:10           0        5.02       0.155
  WS02004413           JUNCTION      0.00   525.15     0  03:11           0        5.01       0.285
  WS02006109           JUNCTION      1.23   549.47     0  03:06      0.0351        5.15       0.137
  WS02006110           JUNCTION      0.00   549.67     0  03:06           0        5.14       0.139
  WS02006111           JUNCTION      0.00   559.68     0  03:06           0        5.13       0.026
  WS02006112           JUNCTION      0.00   542.11     0  03:06           0        5.13       0.408
  WS02006113           JUNCTION      0.00   558.55     0  03:06           0        5.14       0.034
  WS02006115           JUNCTION      0.00   551.74     0  03:07           0        5.11       0.146
  WS02006116           JUNCTION      0.00   535.48     0  03:07           0        5.11       0.059
  WS02006228           JUNCTION      0.00   549.27     0  03:06           0        5.12       0.068
  WS02006229           JUNCTION      0.00   548.56     0  03:06           0        5.13       0.129
  WS02006230           JUNCTION     10.28   576.80     0  03:11       0.293        5.13       0.106
  WS02006231           JUNCTION      0.00   561.26     0  03:05           0        4.84      -0.058
  WS02006232           JUNCTION      0.00   558.71     0  03:05           0        4.85       0.258
  WS02006234           JUNCTION      0.00   555.69     0  01:41           0        4.83      -0.408
  WS02006235           JUNCTION      0.00   559.58     0  01:41           0        4.98       0.079
  WS02006238           JUNCTION      0.00   427.85     0  03:19           0        3.85      -0.267
  WS02006239           JUNCTION      0.00   423.16     0  03:26           0        3.72      -0.434
  WS02006240           JUNCTION      0.00   422.10     0  03:32           0        3.67      -0.270
  WS02006242           JUNCTION      0.00   423.69     0  03:31           0        3.66      -0.067
  WS02006243           JUNCTION      0.00   487.86     0  01:48           0        3.66      -0.055
  WS02006245           JUNCTION      0.00   555.38     0  01:45           0        3.69       0.815
  WS02006247           JUNCTION      0.00   505.03     0  01:45           0        3.68      -0.233
  WS02006248           JUNCTION      0.00   558.46     0  01:58           0         3.7       0.073
  WS02006249           JUNCTION      0.00   540.34     0  01:55           0        3.84       0.624
  WS02006251           JUNCTION      0.08   433.02     0  01:50     0.00219        3.85       0.098
  WS02006252           JUNCTION      0.00   400.00     0  00:00           0        3.83      -0.257
  WS02006256           JUNCTION      0.00   312.22     0  01:36           0        1.63     -12.954
  WSF200               JUNCTION      0.00   524.80     0  03:12           0        4.99       0.011
  YS02001580           JUNCTION      0.00    74.12     0  02:08           0     0.00402       0.593
  YS02001583           JUNCTION      0.00   120.90     0  02:08           0      0.0156      -3.391
  YS02001586           JUNCTION   1066.41  1066.41     0  02:26        2.06        2.07       0.050
  YS02001590           JUNCTION      0.00   318.48     0  02:28           0        1.43      -0.035
  YS02001593           JUNCTION      0.00   317.91     0  02:18           0        1.43       0.015
  YS02001596           JUNCTION      0.00   317.90     0  02:18           0        1.43       0.004
  YS02001600           JUNCTION      0.00   317.98     0  02:21           0        1.43       0.025
  YS02001601           JUNCTION   1865.43  2182.99     0  02:25        2.82        4.25       0.023
  YS02001602           JUNCTION      0.00   509.95     0  02:50           0        2.43       0.023
  YS02001605           JUNCTION      0.00   509.99     0  02:50           0        2.33       0.027
  YS02001607           JUNCTION      0.00   510.12     0  02:50           0        2.32       0.090
  YS02001610           JUNCTION      0.00   945.43     0  02:27           0        2.77       0.090
  YS02001613           JUNCTION      0.00   608.80     0  02:27           0        2.27       0.070
  YS02001616           JUNCTION      0.00   620.74     0  02:28           0        2.27       0.023
  YS02001619           JUNCTION   1900.25  1900.25     0  02:26        3.31        5.13       0.001
  YS02001622           JUNCTION      0.00  1053.57     0  02:26           0        4.64       0.004
  YS02001625           JUNCTION      0.00  1504.45     0  02:28           0        4.94       0.179
  YS02001629           JUNCTION      0.00   994.91     0  02:43           0        3.95       0.029
  YS02001633           JUNCTION   1405.25  1405.25     0  02:25        2.06        5.62       0.064
  YS02001641           JUNCTION      0.00  1352.64     0  02:13           0        5.23       0.056
  YS02001644           JUNCTION   1257.83  1938.10     0  02:25        1.79        7.01       0.050
  YS02001647           JUNCTION      0.00  1734.11     0  02:13           0        6.25       0.007
  YS02001649           JUNCTION      0.00  1988.49     0  02:14           0         7.9       0.007
  YS02001652           JUNCTION      0.00  1251.19     0  02:25           0        1.64      -0.040
  YS02001655           JUNCTION      0.15  1250.72     0  02:25     0.00439        1.64       0.032
  YS02001658           JUNCTION      0.00  1250.58     0  02:25           0        1.64      -0.000
  YS02001661           JUNCTION      0.00  1250.52     0  02:25           0        1.64       0.016
  YS02001664           JUNCTION   1242.11  1242.11     0  02:25        1.64        1.64      -0.005
  YS02001745           JUNCTION    777.31   777.31     0  02:25       0.988       0.988       0.081
  YS02001748           JUNCTION      0.04   780.64     0  02:25     0.00128       0.989      -0.113
  YS02001751           JUNCTION      0.01   781.22     0  02:25    0.000313       0.994       0.058
  YS02001754           JUNCTION      0.26   781.67     0  02:25     0.00741           1      -0.081
  YS02001757           JUNCTION      0.00  3556.90     0  02:24           0          12       0.045
  YS02001759           JUNCTION   1081.81  1503.30     0  02:25        1.37        3.08      -0.001
  YS02001762           JUNCTION      0.00   827.56     0  02:31           0        1.71       0.007
  YS02001765           JUNCTION      0.00   827.13     0  02:31           0        1.71       0.009
  YS02001767           JUNCTION      0.54   827.02     0  02:31      0.0152        1.71       0.011
  YS02001770           JUNCTION   1527.05  1527.05     0  02:25        2.08        2.12       0.002
  YS02001774           JUNCTION      0.00   849.39     0  02:26           0       0.412       0.294
  YS02001779           JUNCTION      0.01   849.65     0  02:26    0.000142        0.37      -0.048
  YS02001783           JUNCTION      0.00  1170.53     0  02:24           0        4.32       0.007
  YS02001784           JUNCTION      1.06  1171.76     0  02:23      0.0302        4.35       0.015
  YS02001786           JUNCTION      0.06  1171.65     0  02:24      0.0016        4.35       0.013
  YS02001788           JUNCTION      0.07  1171.93     0  02:24     0.00202        4.36       0.007
  YS02001790           JUNCTION      0.15  1181.78     0  02:23     0.00442        4.36      -0.000
  YS02001791           JUNCTION      0.00  1294.51     0  02:25           0        4.36       0.000
  YS02001793           JUNCTION      0.00  1269.87     0  02:25           0        4.36      -0.001
  YS02001882           JUNCTION      0.00    37.10     0  02:28           0      0.0125       5.888
  YS02001884           JUNCTION      0.00    37.30     0  02:09           0      0.0481       5.545
  YS02001887           JUNCTION   1153.51  1153.51     0  02:25        1.42        1.46       0.310
  YS02001890           JUNCTION      0.00  1153.67     0  02:25           0        1.42       0.368
  YS02001895           JUNCTION      0.00   529.47     0  02:28           0        1.18       0.137
  YS02001898           JUNCTION      0.00   531.97     0  02:28           0        1.18       0.039
  YS02001901           JUNCTION      0.00   517.45     0  02:28           0        1.19       0.276
  YS02001904           JUNCTION      0.00   518.12     0  02:28           0        1.19       0.246
  YS02001907           JUNCTION      0.00  2898.59     0  02:25           0        4.36       0.415
  YS02001910           JUNCTION      0.00  1991.69     0  02:25           0         3.1       0.233
  YS02001915           JUNCTION   1353.80  2014.49     0  02:25        1.98        3.13       0.055
  YS02001918           JUNCTION      0.00   662.17     0  02:25           0        1.17       0.026
  YS02001920           JUNCTION      2.87   661.95     0  02:25      0.0818        1.15       0.087
  YS02001923           JUNCTION      0.04   658.13     0  02:25     0.00107        1.06      -0.013
  YS02001926           JUNCTION      0.05   657.98     0  02:25     0.00149        1.05       0.012
  YS02001929           JUNCTION    656.61   656.61     0  02:25        1.04        1.04      -0.024
  YS02006553           JUNCTION      0.00   804.99     0  02:41           0        2.45       0.487
  YS02006556           JUNCTION      0.00   805.03     0  02:40           0        2.46       0.333
  YS02006558           JUNCTION   1568.14  1568.14     0  02:25        2.08        4.43       0.074
  YS02006561           JUNCTION      0.00  1170.63     0  02:24           0        4.32       0.003
  YS02163301           JUNCTION      0.00   995.98     0  02:43           0        3.95       0.044
  YS02163601           JUNCTION      0.11  1353.11     0  02:13     0.00313        5.23       0.098
  YS02164001           JUNCTION      0.00  1352.96     0  02:13           0        5.22       0.050
  CC-1                 OUTFALL       0.00   683.00     0  00:00           0        5.18       0.000
  CC-2                 OUTFALL       0.00   683.00     0  00:00           0        5.18       0.000
  JK-1                 OUTFALL       0.00  1000.00     0  00:00           0        1.63       0.000
  JK-2                 OUTFALL       0.00  1000.00     0  00:00           0        1.63       0.000
  WSC                  OUTFALL       0.00   543.54     0  03:15           0         5.5       0.000
  CC-storage           STORAGE       0.00  3556.59     0  02:25           0        14.2      -0.336
  JK-storage           STORAGE       0.00  1312.93     0  02:25           0        4.51      -7.224
  
  
  **********************
  Node Surcharge Summary
  **********************
  
  Surcharging occurs when water rises above the top of the highest conduit.
  ---------------------------------------------------------------------
                                               Max. Height   Min. Depth
                                   Hours       Above Crown    Below Rim
  Node                 Type      Surcharged         Meters       Meters
  ---------------------------------------------------------------------
  WS02006109           JUNCTION        2.10          0.217        1.603
  WS02006110           JUNCTION        0.05          0.093        1.757
  WS02006112           JUNCTION        1.16          0.055        1.625
  WS02006228           JUNCTION        2.08          0.234        1.966
  WS02006229           JUNCTION        2.12          0.277        2.173
  WS02006230           JUNCTION        0.05          0.119        1.451
  WS02006231           JUNCTION        1.02          1.121        0.409
  WS02006232           JUNCTION        2.19          1.480        0.000
  WS02006234           JUNCTION        1.72          1.240        0.000
  WS02006235           JUNCTION        2.02          1.290        0.000
  WS02006238           JUNCTION        2.15          1.430        0.000
  WS02006239           JUNCTION        2.04          1.290        0.000
  WS02006240           JUNCTION        2.01          1.390        0.000
  WS02006242           JUNCTION        2.16          0.820        0.000
  WS02006243           JUNCTION        1.97          0.770        0.000
  WS02006245           JUNCTION        1.93          0.850        0.000
  WS02006247           JUNCTION        1.98          0.760        0.000
  WS02006248           JUNCTION        1.90          0.380        0.000
  WS02006249           JUNCTION        1.95          0.390        0.000
  WS02006251           JUNCTION        1.40          0.510        0.670
  WS02006252           JUNCTION        2.66          1.100        0.000
  WS02006256           JUNCTION        6.83          2.050        0.000
  YS02001580           JUNCTION        0.69          0.450        0.000
  YS02001583           JUNCTION        0.69          0.500        0.000
  YS02001586           JUNCTION        0.79          0.510        0.000
  YS02001590           JUNCTION        0.87          0.750        0.000
  YS02001593           JUNCTION        0.87          0.840        0.000
  YS02001596           JUNCTION        0.99          1.070        0.000
  YS02001600           JUNCTION        1.14          1.190        0.000
  YS02001601           JUNCTION        1.50          1.440        0.000
  YS02001602           JUNCTION        1.38          1.270        0.000
  YS02001605           JUNCTION        1.32          1.180        0.000
  YS02001607           JUNCTION        0.80          0.680        0.000
  YS02001610           JUNCTION        0.83          0.680        0.000
  YS02001613           JUNCTION        0.79          0.700        0.000
  YS02001616           JUNCTION        0.75          0.610        0.000
  YS02001619           JUNCTION        0.73          0.610        0.000
  YS02001622           JUNCTION        0.72          0.620        0.000
  YS02001625           JUNCTION        0.93          0.780        0.000
  YS02001629           JUNCTION        0.62          0.470        0.000
  YS02001633           JUNCTION        0.94          1.060        0.000
  YS02001641           JUNCTION        0.80          1.017        0.083
  YS02001644           JUNCTION        0.73          0.920        0.000
  YS02001647           JUNCTION        0.47          0.764        0.136
  YS02001649           JUNCTION        0.51          1.050        0.000
  YS02001652           JUNCTION        0.39          0.850        0.280
  YS02001655           JUNCTION        0.32          0.704        0.496
  YS02001658           JUNCTION        0.25          0.576        0.724
  YS02001661           JUNCTION        0.10          0.244        1.146
  YS02001748           JUNCTION        0.17          0.642        0.548
  YS02001751           JUNCTION        0.26          0.630        0.570
  YS02001754           JUNCTION        0.32          0.784        0.366
  YS02001757           JUNCTION        0.49          1.055        0.155
  YS02001759           JUNCTION        0.43          1.074        0.136
  YS02001762           JUNCTION        0.42          1.062        0.088
  YS02001765           JUNCTION        0.40          1.100        0.000
  YS02001767           JUNCTION        0.39          1.030        0.000
  YS02001770           JUNCTION        0.38          0.920        0.000
  YS02001774           JUNCTION        0.43          1.002        0.048
  YS02001779           JUNCTION        0.33          0.680        0.000
  YS02001783           JUNCTION        0.61          0.759        0.841
  YS02001784           JUNCTION        0.58          1.006        0.484
  YS02001786           JUNCTION        0.47          0.106        1.324
  YS02001882           JUNCTION        0.55          0.830        0.000
  YS02001884           JUNCTION        0.56          0.762        0.108
  YS02001887           JUNCTION        0.59          0.846        0.104
  YS02001890           JUNCTION        0.61          0.760        0.000
  YS02001895           JUNCTION        0.54          0.750        0.000
  YS02001898           JUNCTION        0.53          0.602        0.138
  YS02001901           JUNCTION        0.58          0.708        0.162
  YS02001904           JUNCTION        0.57          0.660        0.190
  YS02001907           JUNCTION        0.86          0.950        0.000
  YS02001910           JUNCTION        0.64          1.015        0.085
  YS02001915           JUNCTION        0.55          1.000        0.000
  YS02001918           JUNCTION        0.46          0.810        0.000
  YS02001920           JUNCTION        0.47          1.140        0.000
  YS02001923           JUNCTION        0.18          0.820        0.000
  YS02001926           JUNCTION        0.22          0.900        0.000
  YS02001929           JUNCTION        0.08          0.780        0.000
  YS02006553           JUNCTION        0.88          1.121        0.069
  YS02006556           JUNCTION        0.74          1.350        0.000
  YS02006558           JUNCTION        0.73          1.400        0.000
  YS02006561           JUNCTION        0.42          0.388        0.762
  YS02163301           JUNCTION        0.91          1.030        0.000
  YS02163601           JUNCTION        0.97          1.080        0.000
  YS02164001           JUNCTION        0.82          1.073        0.027
  
  
  *********************
  Node Flooding Summary
  *********************
  
  Flooding refers to all water that overflows a node, whether it ponds or not.
  --------------------------------------------------------------------------
                                                             Total   Maximum
                                 Maximum   Time of Max       Flood    Ponded
                        Hours       Rate    Occurrence      Volume     Depth
  Node                 Flooded       LPS   days hr:min    10^6 ltr    Meters
  --------------------------------------------------------------------------
  WS02006232              0.01     50.49      0  01:54       0.000     0.000
  WS02006234              0.01     14.26      0  01:54       0.000     0.000
  WS02006235              0.01     35.01      0  01:54       0.000     0.000
  WS02006238              0.01     23.73      0  01:54       0.000     0.000
  WS02006239              0.01      3.81      0  02:13       0.000     0.000
  WS02006240              0.01      1.66      0  02:53       0.000     0.000
  WS02006242              0.01    109.58      0  01:45       0.001     0.000
  WS02006243              0.01    213.99      0  01:48       0.000     0.000
  WS02006245              0.01      2.88      0  02:53       0.000     0.000
  WS02006247              0.01    204.26      0  01:53       0.000     0.000
  WS02006248              0.37    240.21      0  01:58       0.011     0.000
  WS02006249              1.25    233.84      0  01:55       0.118     0.000
  WS02006252              0.01    270.76      0  01:55       0.002     0.000
  WS02006256              1.47    306.09      0  01:36       0.707     0.000
  YS02001580              0.01     28.89      0  02:08       0.000     0.000
  YS02001583              0.01     53.04      0  02:08       0.000     0.000
  YS02001586              0.57    748.76      0  02:26       0.624     0.000
  YS02001590              0.01     10.50      0  02:53       0.000     0.000
  YS02001593              0.01      9.79      0  02:53       0.000     0.000
  YS02001596              0.01      7.68      0  02:53       0.000     0.000
  YS02001600              0.01     11.40      0  02:53       0.000     0.000
  YS02001601              0.71   1784.89      0  02:25       1.815     0.000
  YS02001602              0.52     61.94      0  02:34       0.108     0.000
  YS02001605              0.01      0.21      0  02:28       0.000     0.000
  YS02001607              0.01      0.21      0  02:28       0.000     0.000
  YS02001610              0.48    945.32      0  02:27       0.935     0.000
  YS02001613              0.01      8.67      0  02:28       0.000     0.000
  YS02001616              0.09     35.69      0  02:28       0.001     0.000
  YS02001619              0.10    245.89      0  02:26       0.051     0.000
  YS02001622              0.01      0.38      0  02:28       0.000     0.000
  YS02001625              0.41   1504.36      0  02:28       1.375     0.000
  YS02001629              0.22    287.04      0  02:25       0.090     0.000
  YS02001644              0.24   1903.70      0  02:25       0.749     0.000
  YS02001649              0.01      0.70      0  02:28       0.000     0.000
  YS02001765              0.01      0.67      0  02:28       0.000     0.000
  YS02001767              0.01    106.67      0  02:15       0.000     0.000
  YS02001770              0.06    268.64      0  02:25       0.031     0.000
  YS02001779              0.21    849.53      0  02:26       0.353     0.000
  YS02001882              0.01      0.27      0  02:28       0.000     0.000
  YS02001890              0.24    637.07      0  02:25       0.225     0.000
  YS02001895              0.01      0.45      0  02:28       0.000     0.000
  YS02001907              0.41   2898.22      0  02:25       1.988     0.000
  YS02001915              0.02     32.29      0  02:25       0.001     0.000
  YS02001918              0.01     91.82      0  02:15       0.000     0.000
  YS02001920              0.01     18.16      0  02:15       0.000     0.000
  YS02001923              0.01     90.78      0  02:15       0.000     0.000
  YS02001926              0.01     26.63      0  02:15       0.000     0.000
  YS02001929              0.01    170.21      0  02:15       0.000     0.000
  YS02006556              0.01      0.52      0  02:28       0.000     0.000
  YS02006558              0.01     42.19      0  02:28       0.000     0.000
  YS02163301              0.01      0.41      0  02:28       0.000     0.000
  YS02163601              0.01     31.53      0  02:28       0.000     0.000
  
  
  **********************
  Storage Volume Summary
  **********************
  
  ------------------------------------------------------------------------------------------------
                         Average    Avg   Evap  Exfil     Maximum    Max    Time of Max    Maximum
                          Volume   Pcnt   Pcnt   Pcnt      Volume   Pcnt     Occurrence    Outflow
  Storage Unit           1000 m³   Full   Loss   Loss     1000 m³   Full    days hr:min        LPS
  ------------------------------------------------------------------------------------------------
  CC-storage               0.710   11.1    0.0    0.0       2.858   44.6       0  02:51    1783.53
  JK-storage               0.001    0.4    0.0    0.0       0.150   51.6       0  00:00    2300.00
  
  
  ***********************
  Outfall Loading Summary
  ***********************
  
  -----------------------------------------------------------
                         Flow       Avg       Max       Total
                         Freq      Flow      Flow      Volume
  Outfall Node           Pcnt       LPS       LPS    10^6 ltr
  -----------------------------------------------------------
  CC-1                  46.67    683.00    683.00       5.179
  CC-2                  46.67    683.00    683.00       5.179
  JK-1                  12.06    998.79   1000.00       1.630
  JK-2                  12.06    998.79   1000.00       1.630
  WSC                   99.95    277.60    543.54       5.502
  -----------------------------------------------------------
  System                43.48   3641.18   3896.98      19.121
  
  
  ********************
  Link Flow Summary
  ********************
  
  -----------------------------------------------------------------------------
                                 Maximum  Time of Max   Maximum    Max/    Max/
                                  |Flow|   Occurrence   |Veloc|    Full    Full
  Link                 Type          LPS  days hr:min     m/sec    Flow   Depth
  -----------------------------------------------------------------------------
  1                    CONDUIT    543.54     0  03:15      2.81    0.19    0.29
  WS02003060WS02003069 CONDUIT    541.49     0  03:12      1.63    0.21    0.33
  WS02003066WSF200     CONDUIT    524.80     0  03:12      2.84    0.09    0.22
  WS02003067WS02003066 CONDUIT    524.73     0  03:13      1.19    0.17    0.41
  WS02003069WS02003072 CONDUIT    541.74     0  03:13      1.36    0.26    0.38
  WS02003072WS02003073 CONDUIT    541.80     0  03:14      1.42    1.17    0.37
  WS02004401WS02004402 CONDUIT    531.23     0  03:07      1.22    0.64    0.86
  WS02004402WS02004403 CONDUIT    530.09     0  03:09      1.24    0.76    0.88
  WS02004403WS02004404 CONDUIT    529.82     0  03:09      1.24    0.38    0.92
  WS02004404WS02004405 CONDUIT    529.65     0  03:09      1.45    5.19    0.95
  WS02004405WS02004406 CONDUIT    529.74     0  03:09      1.46    1.04    0.95
  WS02004406WS02004407 CONDUIT    529.32     0  03:09      1.03    0.24    0.62
  WS02004407WS02004409 CONDUIT    529.20     0  03:09      1.59    0.19    0.48
  WS02004409WS02004410 CONDUIT    527.81     0  03:10      1.06    0.68    0.67
  WS02004410WS02004411 CONDUIT    526.79     0  03:10      1.12    0.72    0.68
  WS02004411WS02004412 CONDUIT    525.32     0  03:10      1.22    0.75    0.69
  WS02004412WS02004413 CONDUIT    525.15     0  03:11      1.22    0.35    0.77
  WS02004413WS02003067 CONDUIT    524.75     0  03:12      1.10    0.22    0.59
  WS02006109WS02006110 CONDUIT    549.67     0  03:06      1.09    1.06    1.00
  WS02006110WS02006113 CONDUIT    558.55     0  03:06      1.33    0.51    0.79
  WS02006111WS02006112 CONDUIT    542.11     0  03:06      1.95    0.26    0.67
  WS02006112WS02006115 CONDUIT    551.74     0  03:07      0.83    0.33    0.87
  WS02006113WS02006111 CONDUIT    559.68     0  03:06      2.46    0.67    0.46
  WS02006115WS02006116 CONDUIT    535.48     0  03:07      1.29    0.69    0.75
  WS02006116WS02004401 CONDUIT    533.43     0  03:07      1.21    0.74    0.83
  WS02006228WS02006109 CONDUIT    548.24     0  03:06      1.09    2.40    1.00
  WS02006229WS02006228 CONDUIT    549.27     0  03:06      1.12    1.82    1.00
  WS02006230WS02006229 CONDUIT    548.56     0  03:06      1.43   12.21    1.00
  WS02006231WS02006230 CONDUIT    566.52     0  03:11      1.48    8.59    1.00
  WS02006232WS02006231 CONDUIT    561.26     0  03:05      1.48    1.18    1.00
  WS02006234WS02006232 CONDUIT    558.71     0  03:05      1.45    1.13    1.00
  WS02006235WS02006234 CONDUIT    555.69     0  01:41      1.45    5.86    1.00
  WS02006238WS02006235 CONDUIT    453.80     0  03:28      1.45    1.01    1.00
  WS02006239WS02006238 CONDUIT    427.85     0  03:19      1.11    1.37    1.00
  WS02006240WS02006239 CONDUIT    423.16     0  03:26      1.25    1.33    1.00
  WS02006242WS02006240 CONDUIT    422.10     0  03:32      1.16    1.68    1.00
  WS02006243WS02006242 CONDUIT    423.69     0  03:31      1.43    0.91    1.00
  WS02006245WS02006243 CONDUIT    487.86     0  01:48      1.45    1.44    1.00
  WS02006247WS02006245 CONDUIT    555.38     0  01:45      1.47    4.40    1.00
  WS02006248WS02006247 CONDUIT    505.03     0  01:45      1.44    1.10    1.00
  WS02006249WS02006248 CONDUIT    558.46     0  01:58      1.48    3.06    1.00
  WS02006251WS02006249 CONDUIT    540.34     0  01:55      1.99    1.56    1.00
  WS02006252WS02006251 CONDUIT    411.53     0  01:48     18.79    1.51    1.00
  WS02006256WS02006235 CONDUIT    288.91     0  00:00      4.23    3.06    1.00
  WSF200WS02003060     CONDUIT    525.20     0  03:12      2.05    0.12    0.28
  YS02001580YS02001583 CONDUIT     74.12     0  02:08      0.52    0.29    1.00
  YS02001583YS02001586 CONDUIT    120.90     0  02:08      0.51    0.18    1.00
  YS02001586YS02001590 CONDUIT    318.48     0  02:28      1.27    0.56    1.00
  YS02001590YS02001593 CONDUIT    317.91     0  02:18      1.12    2.00    1.00
  YS02001593YS02001596 CONDUIT    317.90     0  02:18      1.80    0.50    1.00
  YS02001596YS02001600 CONDUIT    317.98     0  02:21      1.29    0.62    1.00
  YS02001600YS02001601 CONDUIT    318.17     0  02:21      1.13    0.55    1.00
  YS02001601YS02001602 CONDUIT    509.95     0  02:50      1.80    1.84    1.00
  YS02001602YS02001605 CONDUIT    509.99     0  02:50      1.80   10.79    1.00
  YS02001605YS02001607 CONDUIT    510.12     0  02:50      1.80    2.80    1.00
  YS02001607YS02001610 CONDUIT    511.04     0  02:50      0.65    0.49    1.00
  YS02001610YS02001613 CONDUIT    609.11     0  02:28      0.78    0.70    1.00
  YS02001613YS02001616 CONDUIT    608.80     0  02:27      0.78    0.52    1.00
  YS02001616YS02001619 CONDUIT    620.74     0  02:28      0.79    1.08    1.00
  YS02001619YS02001622 CONDUIT   1053.57     0  02:26      1.34    1.55    1.00
  YS02001622YS02001625 CONDUIT   1053.53     0  02:28      1.34    0.56    1.00
  YS02001625YS02001629 CONDUIT    994.91     0  02:43      1.27    0.47    1.00
  YS02001629YS02163301 CONDUIT    995.98     0  02:43      1.27    1.23    1.00
  YS02001633YS02163601 CONDUIT   1353.00     0  02:13      1.72    1.42    1.00
  YS02001641YS02001644 CONDUIT   1352.46     0  02:13      1.72    4.37    1.00
  YS02001644YS02001647 CONDUIT   1734.11     0  02:13      2.22    1.02    1.00
  YS02001647YS02001649 CONDUIT   1740.80     0  02:13      2.28    0.92    1.00
  YS02001649YS02001757 CONDUIT   1986.75     0  02:14      2.53    1.21    1.00
  YS02001652YS02001649 CONDUIT   1251.57     0  02:25      1.59    0.62    1.00
  YS02001655YS02001652 CONDUIT   1251.19     0  02:25      1.59    0.61    1.00
  YS02001658YS02001655 CONDUIT   1250.57     0  02:25      1.80    0.53    1.00
  YS02001661YS02001658 CONDUIT   1250.58     0  02:25      2.25    0.49    1.00
  YS02001664YS02001661 CONDUIT   1250.52     0  02:25      2.22    0.39    0.92
  YS02001745YS02001748 CONDUIT    780.60     0  02:25      2.11    0.30    0.97
  YS02001748YS02001751 CONDUIT    781.21     0  02:25      1.61    0.39    1.00
  YS02001751YS02001754 CONDUIT    781.41     0  02:25      1.31    0.38    1.00
  YS02001754YS02001757 CONDUIT    781.52     0  02:25      1.00    0.31    1.00
  YS02001757CaochengTiaoxuchi CONDUIT   3556.59     0  02:25      6.89    1.54    0.97
  YS02001759YS02001757 CONDUIT   1503.82     0  02:25      1.91    1.07    1.00
  YS02001762YS02001759 CONDUIT    827.75     0  02:31      1.05    0.95    1.00
  YS02001765YS02001762 CONDUIT    827.56     0  02:31      1.05    0.78    1.00
  YS02001767YS02001765 CONDUIT    827.13     0  02:31      1.05    1.04    1.00
  YS02001770YS02001767 CONDUIT    826.49     0  02:31      1.05    3.27    1.00
  YS02001774YS02001770 CONDUIT    849.39     0  02:26      1.08    0.54    1.00
  YS02001779YS02001774 CONDUIT    849.65     0  02:26      1.08    0.43    1.00
  YS02001783YS02001784 CONDUIT   1170.70     0  02:23      2.33    1.61    1.00
  YS02001784YS02001785 CONDUIT   1171.59     0  02:24      2.33    2.73    1.00
  YS02001786YS02001788 CONDUIT   1171.86     0  02:24      2.48    2.26    0.89
  YS02001788YS02001790 CONDUIT   1181.63     0  02:23      2.72    0.87    0.84
  YS02001790YS02001791 CONDUIT   1294.51     0  02:25      3.43    1.41    0.71
  YS02001791YS02001793 CONDUIT   1269.87     0  02:25      6.39    0.55    0.43
  YS02001793JiankangQianchi CONDUIT   1312.93     0  02:25     24.01    0.10    0.50
  YS02001882YS02001884 CONDUIT     37.10     0  02:28      0.13    0.04    1.00
  YS02001884YS02001887 CONDUIT     37.30     0  02:09      0.09    0.05    1.00
  YS02001887YS02001890 CONDUIT   1153.67     0  02:25      1.47    1.97    1.00
  YS02001890YS02001895 CONDUIT    529.47     0  02:28      0.67    0.25    1.00
  YS02001895YS02001898 CONDUIT    531.97     0  02:28      0.68    0.92    1.00
  YS02001898YS02001901 CONDUIT    517.45     0  02:28      0.66    0.33    1.00
  YS02001901YS02001904 CONDUIT    518.12     0  02:28      0.66    0.80    1.00
  YS02001904YS02001907 CONDUIT    519.88     0  02:28      0.66    0.18    1.00
  YS02001907YS02006553 CONDUIT    804.99     0  02:41      0.89    0.95    1.00
  YS02001910YS02001907 CONDUIT   1991.49     0  02:25      2.54    1.12    1.00
  YS02001915YS02001910 CONDUIT   1991.69     0  02:25      2.54    0.99    1.00
  YS02001918YS02001915 CONDUIT    662.34     0  02:25      0.84    0.37    1.00
  YS02001920YS02001918 CONDUIT    662.17     0  02:25      0.84    0.64    1.00
  YS02001923YS02001920 CONDUIT    659.08     0  02:25      0.84    0.30    1.00
  YS02001926YS02001923 CONDUIT    658.09     0  02:25      0.94    0.94    1.00
  YS02001929YS02001926 CONDUIT    657.93     0  02:25      1.08    0.31    1.00
  YS02006553YS02006556 CONDUIT    805.03     0  02:40      1.02    0.69    1.00
  YS02006556YS02006558 CONDUIT    806.03     0  02:40      1.03    0.64    1.00
  YS02006558YS02006561 CONDUIT   1170.63     0  02:24      4.14    2.59    1.00
  YS02006561YS02001783 CONDUIT   1170.53     0  02:24      2.33    0.61    1.00
  YS02163301YS02001633 CONDUIT    996.01     0  02:43      1.27    0.94    1.00
  YS02163601YS02164001 CONDUIT   1352.96     0  02:13      1.72    1.20    1.00
  YS02164001YS02001641 CONDUIT   1352.64     0  02:13      1.72    1.85    1.00
  CC-R1                PUMP       683.00     0  00:00              1.00
  CC-R2                PUMP       683.00     0  00:00              1.00
  CC-S1                PUMP       200.00     0  00:00              1.00
  CC-S2                PUMP       200.00     0  00:00              1.00
  JK-R1                PUMP      1000.00     0  00:00              1.00
  JK-R2                PUMP      1000.00     0  00:00              1.00
  JK-S                 PUMP       300.00     0  00:00              1.00
  
  
  ***************************
  Flow Classification Summary
  ***************************
  
  -------------------------------------------------------------------------------------
                      Adjusted    ---------- Fraction of Time in Flow Class ---------- 
                       /Actual         Up    Down  Sub   Sup   Up    Down  Norm  Inlet 
  Conduit               Length    Dry  Dry   Dry   Crit  Crit  Crit  Crit  Ltd   Ctrl  
  -------------------------------------------------------------------------------------
  1                       1.00   0.00  0.00  0.00  0.00  1.00  0.00  0.00  0.33  0.00
  WS02003060WS02003069    1.00   0.00  0.00  0.00  0.98  0.02  0.00  0.00  0.71  0.00
  WS02003066WSF200        1.00   0.05  0.00  0.00  0.00  0.95  0.00  0.00  0.88  0.00
  WS02003067WS02003066    1.00   0.05  0.00  0.00  0.95  0.00  0.00  0.00  0.00  0.00
  WS02003069WS02003072    1.00   0.00  0.00  0.00  0.99  0.01  0.00  0.00  0.73  0.00
  WS02003072WS02003073    1.00   0.00  0.00  0.00  0.00  0.00  0.00  1.00  0.00  0.00
  WS02004401WS02004402    1.00   0.02  0.00  0.00  0.98  0.00  0.00  0.00  0.00  0.00
  WS02004402WS02004403    1.00   0.02  0.00  0.00  0.98  0.00  0.00  0.00  0.00  0.00
  WS02004403WS02004404    1.00   0.00  0.03  0.00  0.97  0.00  0.00  0.00  0.00  0.00
  WS02004404WS02004405    1.00   0.00  0.00  0.00  1.00  0.00  0.00  0.00  0.01  0.00
  WS02004405WS02004406    1.00   0.00  0.00  0.00  1.00  0.00  0.00  0.00  0.00  0.00
  WS02004406WS02004407    1.00   0.00  0.03  0.00  0.97  0.00  0.00  0.00  0.00  0.00
  WS02004407WS02004409    1.00   0.03  0.00  0.00  0.95  0.01  0.00  0.00  0.95  0.00
  WS02004409WS02004410    1.00   0.03  0.00  0.00  0.96  0.00  0.00  0.00  0.00  0.00
  WS02004410WS02004411    1.00   0.04  0.00  0.00  0.96  0.00  0.00  0.00  0.00  0.00
  WS02004411WS02004412    1.00   0.04  0.00  0.00  0.96  0.00  0.00  0.00  0.00  0.00
  WS02004412WS02004413    1.00   0.04  0.00  0.00  0.96  0.00  0.00  0.00  0.00  0.00
  WS02004413WS02003067    1.00   0.04  0.01  0.00  0.00  0.00  0.95  0.00  0.00  0.00
  WS02006109WS02006110    1.00   0.00  0.01  0.00  0.98  0.00  0.01  0.00  0.00  0.00
  WS02006110WS02006113    1.00   0.01  0.01  0.00  0.98  0.00  0.00  0.00  0.00  0.00
  WS02006111WS02006112    1.00   0.02  0.00  0.00  0.98  0.00  0.00  0.00  0.98  0.00
  WS02006112WS02006115    1.00   0.02  0.00  0.00  0.97  0.00  0.00  0.00  0.00  0.00
  WS02006113WS02006111    1.00   0.02  0.00  0.00  0.00  0.98  0.00  0.00  0.14  0.00
  WS02006115WS02006116    1.00   0.02  0.00  0.00  0.97  0.00  0.00  0.01  0.00  0.00
  WS02006116WS02004401    1.00   0.02  0.00  0.00  0.98  0.00  0.00  0.00  0.00  0.00
  WS02006228WS02006109    1.00   0.00  0.00  0.00  1.00  0.00  0.00  0.00  0.01  0.00
  WS02006229WS02006228    1.00   0.00  0.00  0.00  0.99  0.00  0.00  0.01  0.00  0.00
  WS02006230WS02006229    1.00   0.00  0.00  0.00  0.99  0.00  0.00  0.01  0.02  0.00
  WS02006231WS02006230    1.00   0.00  0.00  0.00  0.28  0.00  0.71  0.00  0.00  0.00
  WS02006232WS02006231    1.00   0.00  0.00  0.00  0.99  0.00  0.01  0.00  0.00  0.00
  WS02006234WS02006232    1.00   0.00  0.00  0.00  1.00  0.00  0.00  0.00  0.02  0.00
  WS02006235WS02006234    1.00   0.00  0.00  0.00  0.95  0.00  0.05  0.00  0.00  0.00
  WS02006238WS02006235    1.00   0.00  0.00  0.00  1.00  0.00  0.00  0.00  0.01  0.00
  WS02006239WS02006238    1.00   0.00  0.00  0.00  1.00  0.00  0.00  0.00  0.07  0.00
  WS02006240WS02006239    1.00   0.00  0.00  0.00  0.91  0.00  0.00  0.09  0.21  0.00
  WS02006242WS02006240    1.00   0.00  0.00  0.00  0.95  0.00  0.04  0.00  0.00  0.00
  WS02006243WS02006242    1.00   0.00  0.00  0.00  0.98  0.00  0.00  0.02  0.55  0.00
  WS02006245WS02006243    1.00   0.00  0.00  0.00  0.72  0.00  0.00  0.28  0.02  0.00
  WS02006247WS02006245    1.00   0.00  0.00  0.00  0.98  0.00  0.00  0.02  0.00  0.00
  WS02006248WS02006247    1.00   0.00  0.00  0.00  0.98  0.00  0.00  0.02  0.32  0.00
  WS02006249WS02006248    1.00   0.00  0.00  0.00  0.46  0.00  0.54  0.00  0.00  0.00
  WS02006251WS02006249    1.00   0.00  0.00  0.00  0.99  0.01  0.00  0.00  0.55  0.00
  WS02006252WS02006251    1.00   0.00  0.41  0.00  0.18  0.00  0.41  0.00  0.00  0.00
  WS02006256WS02006235    1.00   0.00  0.00  0.00  0.97  0.03  0.00  0.00  0.01  0.00
  WSF200WS02003060        1.00   0.00  0.05  0.00  0.25  0.70  0.00  0.00  0.64  0.00
  YS02001580YS02001583    1.00   0.26  0.53  0.00  0.20  0.00  0.00  0.00  0.63  0.00
  YS02001583YS02001586    1.00   0.40  0.34  0.00  0.26  0.00  0.00  0.00  0.63  0.00
  YS02001586YS02001590    1.00   0.13  0.00  0.00  0.46  0.04  0.00  0.37  0.39  0.00
  YS02001590YS02001593    1.00   0.13  0.01  0.00  0.13  0.00  0.74  0.00  0.00  0.00
  YS02001593YS02001596    1.00   0.14  0.00  0.00  0.14  0.01  0.00  0.71  0.02  0.00
  YS02001596YS02001600    1.00   0.14  0.00  0.00  0.21  0.02  0.00  0.64  0.05  0.00
  YS02001600YS02001601    1.00   0.13  0.01  0.00  0.86  0.00  0.00  0.00  0.58  0.00
  YS02001601YS02001602    1.00   0.13  0.01  0.00  0.86  0.00  0.00  0.00  0.00  0.00
  YS02001602YS02001605    1.00   0.14  0.00  0.00  0.86  0.00  0.00  0.00  0.00  0.00
  YS02001605YS02001607    1.00   0.14  0.00  0.00  0.86  0.00  0.00  0.00  0.00  0.00
  YS02001607YS02001610    1.00   0.13  0.01  0.00  0.86  0.00  0.00  0.00  0.01  0.00
  YS02001610YS02001613    1.00   0.13  0.00  0.00  0.87  0.00  0.00  0.00  0.00  0.00
  YS02001613YS02001616    1.00   0.13  0.00  0.00  0.87  0.00  0.00  0.00  0.00  0.00
  YS02001616YS02001619    1.00   0.13  0.00  0.00  0.87  0.00  0.00  0.00  0.00  0.00
  YS02001619YS02001622    1.00   0.13  0.00  0.00  0.87  0.00  0.00  0.00  0.26  0.00
  YS02001622YS02001625    1.00   0.13  0.00  0.00  0.87  0.00  0.00  0.00  0.04  0.00
  YS02001625YS02001629    1.00   0.13  0.05  0.00  0.17  0.00  0.66  0.00  0.00  0.00
  YS02001629YS02163301    1.00   0.15  0.01  0.00  0.84  0.00  0.00  0.00  0.00  0.00
  YS02001633YS02163601    1.00   0.00  0.01  0.00  0.99  0.00  0.00  0.00  0.15  0.00
  YS02001641YS02001644    1.00   0.00  0.01  0.00  0.99  0.00  0.00  0.00  0.00  0.00
  YS02001644YS02001647    1.00   0.00  0.17  0.00  0.83  0.00  0.00  0.00  0.00  0.00
  YS02001647YS02001649    1.00   0.00  0.17  0.00  0.51  0.32  0.00  0.00  0.54  0.00
  YS02001649YS02001757    1.00   0.00  0.00  0.00  0.84  0.16  0.00  0.00  0.72  0.00
  YS02001652YS02001649    1.00   0.00  0.00  0.00  0.97  0.03  0.00  0.00  0.73  0.00
  YS02001655YS02001652    1.00   0.00  0.00  0.00  0.19  0.01  0.00  0.79  0.09  0.00
  YS02001658YS02001655    1.00   0.00  0.14  0.00  0.61  0.25  0.00  0.00  0.73  0.00
  YS02001661YS02001658    1.00   0.14  0.00  0.00  0.45  0.41  0.00  0.00  0.71  0.00
  YS02001664YS02001661    1.00   0.13  0.00  0.00  0.74  0.14  0.00  0.00  0.84  0.00
  YS02001745YS02001748    1.00   0.00  0.00  0.00  0.05  0.01  0.00  0.94  0.02  0.00
  YS02001748YS02001751    1.00   0.00  0.00  0.00  0.76  0.24  0.00  0.00  0.78  0.00
  YS02001751YS02001754    1.00   0.00  0.00  0.00  0.13  0.01  0.00  0.86  0.05  0.00
  YS02001754YS02001757    1.00   0.00  0.00  0.00  1.00  0.00  0.00  0.00  0.84  0.00
  YS02001757CaochengTiaoxuchi    1.00   0.00  0.00  0.00  0.15  0.85  0.00  0.00  0.12  0.00
  YS02001759YS02001757    1.00   0.00  0.00  0.00  1.00  0.00  0.00  0.00  0.63  0.00
  YS02001762YS02001759    1.00   0.00  0.00  0.00  1.00  0.00  0.00  0.00  0.06  0.00
  YS02001765YS02001762    1.00   0.00  0.00  0.00  1.00  0.00  0.00  0.00  0.72  0.00
  YS02001767YS02001765    1.00   0.00  0.00  0.00  1.00  0.00  0.00  0.00  0.00  0.00
  YS02001770YS02001767    1.00   0.00  0.00  0.00  1.00  0.00  0.00  0.00  0.00  0.00
  YS02001774YS02001770    1.00   0.00  0.13  0.00  0.71  0.00  0.15  0.00  0.03  0.00
  YS02001779YS02001774    1.00   0.00  0.00  0.00  1.00  0.00  0.00  0.00  0.78  0.00
  YS02001783YS02001784    1.00   0.00  0.18  0.00  0.82  0.00  0.00  0.00  0.54  0.00
  YS02001784YS02001785    1.00   0.00  0.00  0.00  1.00  0.00  0.00  0.00  0.17  0.00
  YS02001786YS02001788    1.00   0.00  0.00  0.00  0.79  0.21  0.00  0.00  0.00  0.00
  YS02001788YS02001790    1.00   0.00  0.00  0.00  0.22  0.78  0.00  0.00  0.79  0.00
  YS02001790YS02001791    1.00   0.00  0.00  0.00  0.01  0.99  0.00  0.00  0.15  0.00
  YS02001791YS02001793    1.00   0.00  0.00  0.00  0.00  1.00  0.00  0.00  0.01  0.00
  YS02001793JiankangQianchi    1.00   0.00  0.00  0.00  0.00  1.00  0.00  0.00  0.21  0.00
  YS02001882YS02001884    1.00   0.15  0.01  0.00  0.84  0.00  0.00  0.00  0.00  0.00
  YS02001884YS02001887    1.00   0.06  0.05  0.00  0.89  0.00  0.00  0.00  0.00  0.00
  YS02001887YS02001890    1.00   0.00  0.00  0.00  0.97  0.00  0.03  0.00  0.00  0.00
  YS02001890YS02001895    1.00   0.00  0.16  0.00  0.84  0.00  0.00  0.00  0.00  0.00
  YS02001895YS02001898    1.00   0.16  0.00  0.00  0.82  0.00  0.02  0.00  0.00  0.00
  YS02001898YS02001901    1.00   0.17  0.00  0.00  0.83  0.00  0.00  0.00  0.01  0.00
  YS02001901YS02001904    1.00   0.17  0.00  0.00  0.83  0.00  0.00  0.00  0.00  0.00
  YS02001904YS02001907    1.00   0.00  0.16  0.00  0.83  0.00  0.00  0.00  0.00  0.00
  YS02001907YS02006553    1.00   0.00  0.02  0.00  0.98  0.00  0.00  0.00  0.00  0.00
  YS02001910YS02001907    1.00   0.00  0.00  0.00  0.97  0.00  0.00  0.03  0.12  0.00
  YS02001915YS02001910    1.00   0.00  0.00  0.00  0.97  0.03  0.00  0.00  0.16  0.00
  YS02001918YS02001915    1.00   0.00  0.01  0.00  0.98  0.02  0.00  0.00  0.74  0.00
  YS02001920YS02001918    1.00   0.00  0.01  0.00  0.99  0.00  0.00  0.00  0.00  0.00
  YS02001923YS02001920    1.00   0.00  0.00  0.00  1.00  0.00  0.00  0.00  0.91  0.00
  YS02001926YS02001923    1.00   0.00  0.07  0.00  0.07  0.00  0.86  0.00  0.00  0.00
  YS02001929YS02001926    1.00   0.00  0.13  0.00  0.87  0.00  0.00  0.00  0.81  0.00
  YS02006553YS02006556    1.00   0.01  0.00  0.00  0.99  0.00  0.00  0.00  0.03  0.00
  YS02006556YS02006558    1.00   0.00  0.00  0.00  1.00  0.00  0.00  0.00  0.00  0.00
  YS02006558YS02006561    1.00   0.18  0.00  0.00  0.07  0.76  0.00  0.00  0.18  0.00
  YS02006561YS02001783    1.00   0.18  0.00  0.00  0.10  0.72  0.00  0.00  0.67  0.00
  YS02163301YS02001633    1.00   0.00  0.15  0.00  0.85  0.00  0.00  0.00  0.00  0.00
  YS02163601YS02164001    1.00   0.00  0.08  0.00  0.92  0.00  0.00  0.00  0.00  0.00
  YS02164001YS02001641    1.00   0.01  0.08  0.00  0.92  0.00  0.00  0.00  0.06  0.00
  
  
  *************************
  Conduit Surcharge Summary
  *************************
  
  ----------------------------------------------------------------------------
                                                           Hours        Hours 
                         --------- Hours Full --------   Above Full   Capacity
  Conduit                Both Ends  Upstream  Dnstream   Normal Flow   Limited
  ----------------------------------------------------------------------------
  WS02003072WS02003073        0.01      0.01      0.01      1.80         0.01
  WS02004404WS02004405        0.01      0.01      0.01      3.26         0.01
  WS02004405WS02004406        0.01      0.01      0.01      0.70         0.01
  WS02006109WS02006110        0.05      0.05      2.17      0.08         0.01
  WS02006110WS02006113        0.01      0.01      2.15      0.01         0.01
  WS02006111WS02006112        0.01      0.01      2.26      0.01         0.01
  WS02006112WS02006115        0.01      0.01      1.16      0.01         0.01
  WS02006228WS02006109        2.10      2.18      2.10      2.53         2.10
  WS02006229WS02006228        2.08      2.12      2.08      2.36         2.08
  WS02006230WS02006229        2.24      2.29      2.24      4.26         2.24
  WS02006231WS02006230        0.05      0.05      1.29      3.61         0.01
  WS02006232WS02006231        0.98      0.98      2.19      1.23         0.01
  WS02006234WS02006232        2.02      2.02      2.19      0.74         0.81
  WS02006235WS02006234        1.64      1.69      2.00      3.23         0.26
  WS02006238WS02006235        2.08      2.08      2.21      0.01         0.08
  WS02006239WS02006238        2.13      2.19      2.14      2.07         1.33
  WS02006240WS02006239        2.00      2.06      2.04      2.04         1.30
  WS02006242WS02006240        2.01      2.01      2.24      2.37         0.03
  WS02006243WS02006242        2.01      2.01      2.16      0.01         0.33
  WS02006245WS02006243        1.93      1.96      1.96      2.07         1.23
  WS02006247WS02006245        1.93      2.02      1.93      2.75         1.71
  WS02006248WS02006247        1.92      1.94      1.98      0.01         0.60
  WS02006249WS02006248        1.89      1.90      1.95      2.63         0.03
  WS02006251WS02006249        1.93      2.01      1.95      2.46         1.68
  WS02006252WS02006251        2.65      2.66      2.66      2.66         0.01
  WS02006256WS02006235        2.47      3.33      5.81      1.80         0.08
  YS02001580YS02001583        0.69      0.69      0.72      0.01         0.01
  YS02001583YS02001586        0.69      0.69      0.79      0.01         0.01
  YS02001586YS02001590        0.80      0.80      0.87      0.01         0.01
  YS02001590YS02001593        0.87      0.87      0.90      0.91         0.01
  YS02001593YS02001596        0.89      0.89      0.99      0.01         0.01
  YS02001596YS02001600        1.05      1.05      1.14      0.01         0.01
  YS02001600YS02001601        1.20      1.20      1.50      0.01         0.01
  YS02001601YS02001602        1.38      1.38      1.54      1.17         0.01
  YS02001602YS02001605        1.32      1.32      1.38      2.43         0.01
  YS02001605YS02001607        1.27      1.32      1.27      1.46         1.27
  YS02001607YS02001610        0.80      0.80      0.83      0.01         0.01
  YS02001610YS02001613        0.79      0.79      0.83      0.01         0.01
  YS02001613YS02001616        0.75      0.75      0.79      0.01         0.01
  YS02001616YS02001619        0.73      0.73      0.75      0.08         0.04
  YS02001619YS02001622        0.72      0.73      0.72      0.92         0.71
  YS02001622YS02001625        0.72      0.72      0.93      0.01         0.01
  YS02001625YS02001629        0.62      0.62      0.93      0.01         0.01
  YS02001629YS02163301        0.91      0.91      0.91      0.40         0.39
  YS02001633YS02163601        0.94      0.94      0.97      0.51         0.51
  YS02001641YS02001644        0.73      0.80      0.73      1.58         0.73
  YS02001644YS02001647        0.47      0.47      0.73      0.04         0.01
  YS02001647YS02001649        0.47      0.47      0.51      0.01         0.01
  YS02001649YS02001757        0.49      0.51      0.49      0.44         0.31
  YS02001652YS02001649        0.40      0.40      0.51      0.01         0.01
  YS02001655YS02001652        0.32      0.32      0.39      0.01         0.01
  YS02001658YS02001655        0.25      0.25      0.32      0.01         0.01
  YS02001661YS02001658        0.10      0.10      0.25      0.01         0.01
  YS02001664YS02001661        0.01      0.01      0.13      0.01         0.01
  YS02001745YS02001748        0.01      0.01      0.17      0.01         0.01
  YS02001748YS02001751        0.21      0.21      0.26      0.01         0.01
  YS02001751YS02001754        0.26      0.26      0.32      0.01         0.01
  YS02001754YS02001757        0.33      0.33      0.49      0.01         0.01
  YS02001757CaochengTiaoxuchi        0.01      0.49      0.19      0.60         0.01
  YS02001759YS02001757        0.43      0.43      0.49      0.10         0.11
  YS02001762YS02001759        0.42      0.42      0.43      0.01         0.03
  YS02001765YS02001762        0.40      0.40      0.42      0.01         0.01
  YS02001767YS02001765        0.39      0.39      0.40      0.01         0.05
  YS02001770YS02001767        0.39      0.40      0.39      0.69         0.38
  YS02001774YS02001770        0.38      0.38      0.43      0.01         0.01
  YS02001779YS02001774        0.33      0.33      0.43      0.01         0.01
  YS02001783YS02001784        0.58      0.61      0.58      0.78         0.58
  YS02001784YS02001785        0.47      0.58      0.47      1.03         0.47
  YS02001786YS02001788        0.01      0.47      0.01      0.90         0.01
  YS02001790YS02001791        0.01      0.01      0.01      0.57         0.01
  YS02001882YS02001884        0.55      0.55      0.56      0.01         0.01
  YS02001884YS02001887        0.58      0.58      0.59      0.01         0.01
  YS02001887YS02001890        0.61      0.61      0.62      0.18         0.01
  YS02001890YS02001895        0.54      0.54      0.64      0.01         0.01
  YS02001895YS02001898        0.53      0.53      0.54      0.01         0.01
  YS02001898YS02001901        0.54      0.54      0.58      0.01         0.01
  YS02001901YS02001904        0.57      0.57      0.58      0.01         0.01
  YS02001904YS02001907        0.57      0.57      0.88      0.01         0.01
  YS02001907YS02006553        1.04      1.04      1.11      0.01         0.01
  YS02001910YS02001907        0.64      0.64      0.86      0.07         0.07
  YS02001915YS02001910        0.55      0.55      0.64      0.01         0.01
  YS02001918YS02001915        0.46      0.46      0.55      0.01         0.01
  YS02001920YS02001918        0.46      0.46      0.47      0.01         0.01
  YS02001923YS02001920        0.42      0.42      0.47      0.01         0.01
  YS02001926YS02001923        0.18      0.18      0.22      0.01         0.01
  YS02001929YS02001926        0.08      0.08      0.22      0.01         0.01
  YS02006553YS02006556        0.74      0.74      0.88      0.01         0.01
  YS02006556YS02006558        0.81      0.81      0.90      0.01         0.01
  YS02006558YS02006561        0.49      0.73      0.49      0.98         0.49
  YS02006561YS02001783        0.42      0.42      0.61      0.01         0.01
  YS02163301YS02001633        0.91      0.91      0.96      0.01         0.03
  YS02163601YS02164001        0.82      0.82      0.97      0.33         0.01
  YS02164001YS02001641        0.80      0.82      0.80      0.77         0.59
  
  
  ***************
  Pumping Summary
  ***************
  
  ---------------------------------------------------------------------------------------------------------
                                                  Min       Avg       Max     Total     Power    % Time Off
                        Percent   Number of      Flow      Flow      Flow    Volume     Usage    Pump Curve
  Pump                 Utilized   Start-Ups       LPS       LPS       LPS  10^6 ltr     Kw-hr    Low   High
  ---------------------------------------------------------------------------------------------------------
  CC-R1                   26.60          10      0.00    683.00    683.00     5.177     84.67    0.0   90.9
  CC-R2                   26.60          10      0.00    683.00    683.00     5.177     84.67    0.0   90.9
  CC-S1                   33.59          19      0.00    200.00    200.00     1.915     15.45    0.0   49.0
  CC-S2                   33.59          19      0.00    200.00    200.00     1.915     15.45    0.0   49.0
  JK-R1                    5.83         449      0.00    998.79   1000.00     1.659      4.03    0.0    0.0
  JK-R2                    5.83         449      0.00    998.79   1000.00     1.659      4.03    0.0    0.0
  JK-S                    19.39         699      0.00    296.94    300.00     1.608     36.86    0.0    0.0
  

  Analysis begun on:  Thu Jan 16 14:23:33 2025
  Analysis ended on:  Thu Jan 16 14:23:34 2025
  Total elapsed time: 00:00:01