
  EPA STORM WATER MANAGEMENT MODEL - VERSION 5.2 (Build 5.2.4)
  PYSWMM TOOLKIT API - VERSION v1.0 (2023-11-27)
  ------------------------------------------------------------

  WARNING 04: minimum elevation drop used for Conduit WS02004404WS02004405
  WARNING 03: negative offset ignored for Link YS02001904YS02001907
  
  ****************
  Analysis Options
  ****************
  Flow Units ............... LPS
  Process Models:
    Rainfall/Runoff ........ YES
    RDII ................... NO
    Snowmelt ............... NO
    Groundwater ............ NO
    Flow Routing ........... YES
    Ponding Allowed ........ NO
    Water Quality .......... NO
  Infiltration Method ...... HORTON
  Flow Routing Method ...... DYNWAVE
  Surcharge Method ......... EXTRAN
  Starting Date ............ 08/28/2015 08:00:00
  Ending Date .............. 08/28/2015 16:00:00
  Antecedent Dry Days ...... 8.0
  Report Time Step ......... 00:01:00
  Wet Time Step ............ 00:01:00
  Dry Time Step ............ 00:01:00
  Routing Time Step ........ 30.00 sec
  Variable Time Step ....... YES
  Maximum Trials ........... 8
  Number of Threads ........ 4
  Head Tolerance ........... 0.001500 m
  
  
  **************************        Volume         Depth
  Runoff Quantity Continuity     hectare-m            mm
  **************************     ---------       -------
  Total Precipitation ......         2.344        70.678
  Evaporation Loss .........         0.000         0.000
  Infiltration Loss ........         0.099         2.996
  Surface Runoff ...........         2.213        66.704
  Final Storage ............         0.033         0.996
  Continuity Error (%) .....        -0.027
  
  
  **************************        Volume        Volume
  Flow Routing Continuity        hectare-m      10^6 ltr
  **************************     ---------     ---------
  Dry Weather Inflow .......         0.025         0.248
  Wet Weather Inflow .......         2.212        22.123
  Groundwater Inflow .......         0.000         0.000
  RDII Inflow ..............         0.000         0.000
  External Inflow ..........         0.083         0.825
  External Outflow .........         1.804        18.042
  Flooding Loss ............         0.780         7.796
  Evaporation Loss .........         0.000         0.000
  Exfiltration Loss ........         0.000         0.000
  Initial Stored Volume ....         0.243         2.431
  Final Stored Volume ......         0.041         0.406
  Continuity Error (%) .....        -2.411
  
  
  *************************
  Highest Continuity Errors
  *************************
  Node WS02006256 (-15.15%)
  Node JK-storage (-8.13%)
  Node YS02001884 (5.21%)
  Node YS02001583 (-5.20%)
  
  
  ***************************
  Time-Step Critical Elements
  ***************************
  Link WS02006238WS02006235 (39.84%)
  Link YS02001793JiankangQianchi (29.07%)
  Link WS02004404WS02004405 (6.67%)
  Link WS02003066WSF200 (6.53%)
  Link WS02006235WS02006234 (1.85%)
  
  
  ********************************
  Highest Flow Instability Indexes
  ********************************
  Link WS02006229WS02006228 (44)
  Link WS02006256WS02006235 (41)
  Link WS02006113WS02006111 (39)
  Link WS02006252WS02006251 (36)
  Link WS02006235WS02006234 (32)
  
  
  *********************************
  Most Frequent Nonconverging Nodes
  *********************************
  Node CC-1 (47.58%)
  Node CC-2 (47.58%)
  Node JK-1 (47.58%)
  Node JK-2 (47.58%)
  Node WSC (47.58%)
  
  
  *************************
  Routing Time Step Summary
  *************************
  Minimum Time Step           :     0.02 sec
  Average Time Step           :     2.57 sec
  Maximum Time Step           :     6.43 sec
  % of Time in Steady State   :     0.00
  Average Iterations per Step :     5.37
  % of Steps Not Converging   :    47.58
  Time Step Frequencies       :
     30.000 - 13.228 sec      :     0.00 %
     13.228 -  5.833 sec      :     5.44 %
      5.833 -  2.572 sec      :    35.46 %
      2.572 -  1.134 sec      :    42.66 %
      1.134 -  0.500 sec      :    16.44 %
  
  
  ***************************
  Subcatchment Runoff Summary
  ***************************
  
  ------------------------------------------------------------------------------------------------------------------------------
                            Total      Total      Total      Total     Imperv       Perv      Total       Total     Peak  Runoff
                           Precip      Runon       Evap      Infil     Runoff     Runoff     Runoff      Runoff   Runoff   Coeff
  Subcatchment                 mm         mm         mm         mm         mm         mm         mm    10^6 ltr      LPS
  ------------------------------------------------------------------------------------------------------------------------------
  sub60                     70.68       0.00       0.00       1.80      61.00       6.69      67.69        0.89   677.54   0.958
  sub61                     70.68       0.00       0.00       2.61      57.54       9.41      66.95        1.23   940.04   0.947
  sub62                     70.68       0.00       0.00       1.20      63.74       4.46      68.20        1.87  1323.76   0.965
  sub63                     70.68       0.00       0.00       4.81      49.22      15.69      64.91        1.47  1057.63   0.918
  sub64                     70.68       0.00       0.00       2.43      58.87       8.17      67.05        1.61  1073.88   0.949
  sub65                     70.68       0.00       0.00       2.10      60.24       7.09      67.33        1.85  1194.30   0.953
  sub66                     70.68       0.00       0.00       5.98      49.11      14.52      63.63        2.97  1556.00   0.900
  sub67                     70.68       0.00       0.00       1.16      63.79       4.50      68.29        1.27  1027.58   0.966
  sub68                     70.68       0.00       0.00       2.16      59.60       7.74      67.34        1.85  1359.47   0.953
  sub69                     70.68       0.00       0.00       1.92      59.97       8.68      68.65        2.54  1587.38   0.971
  sub70                     70.68       0.00       0.00       6.46      46.48      17.58      64.06        1.85   870.34   0.906
  sub71                     70.68       0.00       0.00       1.23      63.70       4.43      68.13        1.78  1157.70   0.964
  sub72                     70.68       0.00       0.00       1.09      64.33       3.86      68.18        0.94   558.97   0.965
  
  
  ******************
  Node Depth Summary
  ******************
  
  ---------------------------------------------------------------------------------
                                 Average  Maximum  Maximum  Time of Max    Reported
                                   Depth    Depth      HGL   Occurrence   Max Depth
  Node                 Type       Meters   Meters   Meters  days hr:min      Meters
  ---------------------------------------------------------------------------------
  WS02003060           JUNCTION     0.24     0.38     5.31     0  03:03        0.38
  WS02003066           JUNCTION     0.20     0.30     5.85     0  03:02        0.30
  WS02003067           JUNCTION     0.50     0.70     6.02     0  03:02        0.70
  WS02003069           JUNCTION     0.26     0.43     5.01     0  03:04        0.43
  WS02003072           JUNCTION     0.33     0.50     4.87     0  03:03        0.50
  WS02003073           JUNCTION     0.18     0.30     4.36     0  03:04        0.30
  WS02004401           JUNCTION     0.61     0.87     6.87     0  02:58        0.87
  WS02004402           JUNCTION     0.64     0.90     6.86     0  02:58        0.90
  WS02004403           JUNCTION     0.66     0.92     6.85     0  02:59        0.91
  WS02004404           JUNCTION     0.73     1.02     6.87     0  02:58        1.00
  WS02004405           JUNCTION     0.72     0.96     6.81     0  02:58        0.96
  WS02004406           JUNCTION     0.73     0.96     6.79     0  03:00        0.95
  WS02004407           JUNCTION     0.18     0.29     6.61     0  03:00        0.29
  WS02004409           JUNCTION     0.40     0.66     6.43     0  03:01        0.66
  WS02004410           JUNCTION     0.42     0.68     6.40     0  03:01        0.68
  WS02004411           JUNCTION     0.44     0.69     6.37     0  03:01        0.69
  WS02004412           JUNCTION     0.46     0.70     6.34     0  03:02        0.70
  WS02004413           JUNCTION     0.62     0.86     6.33     0  03:02        0.85
  WS02006109           JUNCTION     0.68     1.04     7.66     0  02:54        1.00
  WS02006110           JUNCTION     0.67     0.99     7.58     0  02:54        0.94
  WS02006111           JUNCTION     0.18     0.29     6.99     0  02:59        0.29
  WS02006112           JUNCTION     0.77     1.08     6.96     0  02:59        1.07
  WS02006113           JUNCTION     0.28     0.46     7.35     0  02:59        0.45
  WS02006115           JUNCTION     0.50     0.77     6.91     0  02:59        0.77
  WS02006116           JUNCTION     0.58     0.85     6.89     0  02:59        0.85
  WS02006228           JUNCTION     0.68     1.08     7.73     0  02:52        1.04
  WS02006229           JUNCTION     0.65     1.09     7.79     0  02:52        1.05
  WS02006230           JUNCTION     0.67     1.19     7.94     0  02:52        1.15
  WS02006231           JUNCTION     0.47     2.24     9.36     0  02:50        2.24
  WS02006232           JUNCTION     0.61     2.18     9.22     0  01:43        2.18
  WS02006234           JUNCTION     0.55     1.96     9.12     0  01:43        1.96
  WS02006235           JUNCTION     0.60     2.00     9.16     0  01:43        2.00
  WS02006238           JUNCTION     0.63     2.15     9.29     0  01:43        2.15
  WS02006239           JUNCTION     0.60     2.03     9.24     0  02:37        2.03
  WS02006240           JUNCTION     0.56     2.10     9.39     0  01:45        2.10
  WS02006242           JUNCTION     0.62     1.55     8.82     0  01:42        1.55
  WS02006243           JUNCTION     0.55     1.48     8.90     0  01:44        1.48
  WS02006245           JUNCTION     0.55     1.56     9.04     0  02:05        1.56
  WS02006247           JUNCTION     0.56     1.47     8.97     0  01:42        1.47
  WS02006248           JUNCTION     0.53     1.10     8.69     0  01:41        1.10
  WS02006249           JUNCTION     0.55     1.09     8.69     0  01:41        1.09
  WS02006251           JUNCTION     0.55     1.66     9.33     0  01:50        1.20
  WS02006252           JUNCTION     0.35     1.50     9.74     0  00:00        0.74
  WS02006256           JUNCTION     1.14     2.35     9.28     0  00:00        2.35
  WSF200               JUNCTION     0.17     0.29     5.52     0  03:03        0.29
  YS02001580           JUNCTION     0.16     1.05     9.59     0  01:53        0.77
  YS02001583           JUNCTION     0.19     1.14     9.64     0  01:53        0.84
  YS02001586           JUNCTION     0.30     1.13     9.30     0  01:53        1.13
  YS02001590           JUNCTION     0.41     1.40     9.26     0  01:53        1.40
  YS02001593           JUNCTION     0.34     1.33     9.19     0  01:53        1.29
  YS02001596           JUNCTION     0.46     1.69     9.11     0  01:51        1.65
  YS02001600           JUNCTION     0.56     1.87     9.00     0  01:51        1.86
  YS02001601           JUNCTION     0.74     2.06     8.90     0  01:51        2.06
  YS02001602           JUNCTION     0.64     1.87     8.77     0  01:53        1.87
  YS02001605           JUNCTION     0.59     1.78     8.68     0  01:53        1.78
  YS02001607           JUNCTION     0.55     1.68     8.53     0  01:54        1.68
  YS02001610           JUNCTION     0.59     1.68     8.48     0  01:53        1.68
  YS02001613           JUNCTION     0.55     1.70     8.54     0  01:54        1.70
  YS02001616           JUNCTION     0.49     1.61     8.52     0  01:53        1.61
  YS02001619           JUNCTION     0.46     1.61     8.54     0  01:53        1.61
  YS02001622           JUNCTION     0.45     1.62     8.52     0  01:54        1.62
  YS02001625           JUNCTION     0.69     1.78     8.38     0  01:53        1.78
  YS02001629           JUNCTION     0.59     1.85     8.40     0  01:53        1.85
  YS02001633           JUNCTION     0.66     2.08     8.53     0  02:02        2.08
  YS02001641           JUNCTION     0.61     1.97     8.40     0  02:05        1.97
  YS02001644           JUNCTION     0.60     1.92     8.35     0  01:57        1.92
  YS02001647           JUNCTION     0.38     1.82     8.43     0  01:58        1.77
  YS02001649           JUNCTION     0.42     2.05     8.44     0  01:58        2.01
  YS02001652           JUNCTION     0.30     2.14     8.73     0  01:58        1.87
  YS02001655           JUNCTION     0.22     2.19     9.04     0  01:58        1.69
  YS02001658           JUNCTION     0.17     2.30     9.44     0  01:58        1.46
  YS02001661           JUNCTION     0.19     1.94     9.34     0  01:58        1.26
  YS02001664           JUNCTION     0.09     0.84     8.76     0  01:58        0.80
  YS02001745           JUNCTION     0.10     2.22     9.74     0  01:58        0.90
  YS02001748           JUNCTION     0.15     2.27     9.35     0  01:58        1.33
  YS02001751           JUNCTION     0.17     2.20     9.08     0  01:58        1.51
  YS02001754           JUNCTION     0.24     2.20     8.80     0  01:58        1.76
  YS02001757           JUNCTION     0.42     2.21     8.47     0  01:58        2.08
  YS02001759           JUNCTION     0.36     2.20     8.56     0  01:58        2.09
  YS02001762           JUNCTION     0.35     2.15     8.55     0  01:58        2.06
  YS02001765           JUNCTION     0.33     2.10     8.55     0  01:58        2.01
  YS02001767           JUNCTION     0.32     2.03     8.52     0  01:58        1.97
  YS02001770           JUNCTION     0.34     1.95     8.44     0  01:58        1.95
  YS02001774           JUNCTION     0.40     2.00     8.42     0  02:00        2.00
  YS02001779           JUNCTION     0.23     1.68     8.37     0  01:56        1.68
  YS02001783           JUNCTION     0.34     1.41     7.56     0  01:56        1.24
  YS02001784           JUNCTION     0.34     1.22     7.29     0  01:56        1.12
  YS02001786           JUNCTION     0.29     0.97     7.00     0  01:56        0.88
  YS02001788           JUNCTION     0.21     0.63     6.60     0  02:00        0.62
  YS02001790           JUNCTION     0.24     0.73     6.38     0  02:00        0.72
  YS02001791           JUNCTION     0.15     0.44     5.91     0  02:01        0.43
  YS02001793           JUNCTION     0.09     0.26     5.09     0  02:01        0.25
  YS02001882           JUNCTION     0.42     1.83     8.55     0  01:55        1.83
  YS02001884           JUNCTION     0.51     1.91     8.53     0  01:55        1.91
  YS02001887           JUNCTION     0.58     1.91     8.45     0  01:55        1.91
  YS02001890           JUNCTION     0.61     1.81     8.32     0  01:55        1.81
  YS02001895           JUNCTION     0.39     1.65     8.40     0  01:55        1.65
  YS02001898           JUNCTION     0.40     1.71     8.45     0  01:55        1.71
  YS02001901           JUNCTION     0.51     1.78     8.39     0  01:55        1.78
  YS02001904           JUNCTION     0.49     1.67     8.30     0  01:55        1.67
  YS02001907           JUNCTION     0.79     1.96     8.25     0  01:56        1.96
  YS02001910           JUNCTION     0.61     2.03     8.53     0  02:02        2.03
  YS02001915           JUNCTION     0.44     2.00     8.72     0  02:02        2.00
  YS02001918           JUNCTION     0.27     1.81     8.88     0  01:56        1.81
  YS02001920           JUNCTION     0.35     2.14     9.15     0  01:56        2.09
  YS02001923           JUNCTION     0.21     2.03     9.29     0  01:56        2.03
  YS02001926           JUNCTION     0.23     1.90     9.35     0  01:56        1.90
  YS02001929           JUNCTION     0.15     1.78     9.47     0  01:56        1.66
  YS02006553           JUNCTION     0.79     2.01     8.30     0  01:56        1.99
  YS02006556           JUNCTION     0.77     2.04     8.35     0  01:56        1.99
  YS02006558           JUNCTION     0.81     2.09     8.35     0  01:56        2.05
  YS02006561           JUNCTION     0.22     1.11     7.77     0  01:56        0.91
  YS02163301           JUNCTION     0.61     1.93     8.45     0  02:01        1.93
  YS02163601           JUNCTION     0.68     2.06     8.46     0  01:58        2.06
  YS02164001           JUNCTION     0.61     1.97     8.43     0  01:58        1.97
  CC-1                 OUTFALL      0.00     0.00     0.00     0  00:00        0.00
  CC-2                 OUTFALL      0.00     0.00     0.00     0  00:00        0.00
  JK-1                 OUTFALL      0.00     0.00     0.00     0  00:00        0.00
  JK-2                 OUTFALL      0.00     0.00     0.00     0  00:00        0.00
  WSC                  OUTFALL      0.18     0.30     0.97     0  03:05        0.30
  CC-storage           STORAGE      0.24     0.91     6.41     0  02:34        0.91
  JK-storage           STORAGE      0.02     2.99     3.79     0  00:00        0.68
  
  
  *******************
  Node Inflow Summary
  *******************
  
  -------------------------------------------------------------------------------------------------
                                  Maximum  Maximum                  Lateral       Total        Flow
                                  Lateral    Total  Time of Max      Inflow      Inflow     Balance
                                   Inflow   Inflow   Occurrence      Volume      Volume       Error
  Node                 Type           LPS      LPS  days hr:min    10^6 ltr    10^6 ltr     Percent
  -------------------------------------------------------------------------------------------------
  WS02003060           JUNCTION     16.53   549.84     0  03:03       0.471        5.23       0.044
  WS02003066           JUNCTION      0.00   532.98     0  03:02           0        4.76       0.032
  WS02003067           JUNCTION      0.00   532.91     0  03:02           0        4.76       0.089
  WS02003069           JUNCTION      0.32   549.77     0  03:03     0.00912        5.23       0.082
  WS02003072           JUNCTION      0.00   549.31     0  03:02           0        5.23       0.147
  WS02003073           JUNCTION      1.82   551.03     0  03:03      0.0519        5.27       0.113
  WS02004401           JUNCTION      0.00   537.59     0  03:00           0        4.86       0.219
  WS02004402           JUNCTION      0.00   536.28     0  03:00           0        4.85       0.221
  WS02004403           JUNCTION      0.00   538.40     0  03:00           0        4.84       0.217
  WS02004404           JUNCTION      0.16   552.19     0  02:58     0.00462        4.84       0.138
  WS02004405           JUNCTION      0.04   597.91     0  02:58     0.00109        4.83       0.209
  WS02004406           JUNCTION      0.00   541.41     0  03:00           0        4.82       0.446
  WS02004407           JUNCTION      0.00   535.96     0  03:00           0         4.8       0.026
  WS02004409           JUNCTION      0.00   534.92     0  03:00           0         4.8       0.061
  WS02004410           JUNCTION      0.00   534.06     0  03:01           0        4.79       0.100
  WS02004411           JUNCTION      0.00   533.51     0  03:01           0        4.79       0.124
  WS02004412           JUNCTION      0.00   533.36     0  03:02           0        4.78       0.163
  WS02004413           JUNCTION      0.00   533.43     0  03:02           0        4.78       0.300
  WS02006109           JUNCTION      1.23   544.59     0  02:54      0.0351        4.91       0.131
  WS02006110           JUNCTION      0.00   545.27     0  02:54           0         4.9       0.149
  WS02006111           JUNCTION      0.00   561.12     0  02:54           0        4.89       0.028
  WS02006112           JUNCTION      0.00   542.93     0  02:59           0        4.89       0.428
  WS02006113           JUNCTION      0.00   557.03     0  02:54           0         4.9       0.038
  WS02006115           JUNCTION      0.00   543.88     0  02:59           0        4.87       0.153
  WS02006116           JUNCTION      0.00   539.53     0  02:59           0        4.86       0.031
  WS02006228           JUNCTION      0.00   543.10     0  02:54           0        4.88       0.055
  WS02006229           JUNCTION      0.00   543.10     0  02:54           0        4.88       0.138
  WS02006230           JUNCTION     10.28   593.45     0  03:08       0.293        4.89       0.108
  WS02006231           JUNCTION      0.00   571.84     0  03:08           0        4.59      -0.055
  WS02006232           JUNCTION      0.00   563.34     0  02:51           0        4.61       0.264
  WS02006234           JUNCTION      0.00   557.83     0  03:08           0        4.59      -0.373
  WS02006235           JUNCTION      0.00   547.45     0  01:42           0        4.75       0.130
  WS02006238           JUNCTION      0.00   424.93     0  03:12           0        3.63      -0.349
  WS02006239           JUNCTION      0.00   420.78     0  03:22           0        3.48      -0.466
  WS02006240           JUNCTION      0.00   414.80     0  03:17           0        3.43      -0.278
  WS02006242           JUNCTION      0.00   419.36     0  03:16           0        3.43      -0.079
  WS02006243           JUNCTION      0.00   429.61     0  01:44           0        3.43      -0.053
  WS02006245           JUNCTION      0.00   531.53     0  01:42           0        3.46       0.871
  WS02006247           JUNCTION      0.00   574.60     0  01:42           0        3.45      -0.228
  WS02006248           JUNCTION      0.00   622.54     0  01:41           0        3.46       0.087
  WS02006249           JUNCTION      0.00   555.39     0  01:41           0        3.63       0.726
  WS02006251           JUNCTION      0.08   458.90     0  01:41     0.00219        3.64       0.061
  WS02006252           JUNCTION      0.00   400.00     0  00:00           0        3.62      -0.223
  WS02006256           JUNCTION      0.00   300.00     0  00:00           0         1.6     -13.153
  WSF200               JUNCTION      0.00   533.05     0  03:03           0        4.76       0.011
  YS02001580           JUNCTION      0.00   128.62     0  01:53           0      0.0043      -1.761
  YS02001583           JUNCTION      0.00   176.54     0  01:53           0      0.0153      -4.944
  YS02001586           JUNCTION    870.34   870.37     0  02:04        1.85        1.86       0.072
  YS02001590           JUNCTION      0.00   318.17     0  02:05           0        1.36      -0.034
  YS02001593           JUNCTION      0.00   318.35     0  02:05           0        1.36       0.015
  YS02001596           JUNCTION      0.00   317.82     0  02:02           0        1.36       0.006
  YS02001600           JUNCTION      0.00   317.96     0  02:05           0        1.36       0.017
  YS02001601           JUNCTION   1587.38  1905.00     0  02:02        2.54         3.9       0.023
  YS02001602           JUNCTION      0.00   520.91     0  01:53           0        2.31       0.023
  YS02001605           JUNCTION      0.00   521.45     0  01:52           0        2.21       0.025
  YS02001607           JUNCTION      0.00   522.32     0  01:52           0        2.21       0.092
  YS02001610           JUNCTION      0.00   877.84     0  02:04           0        2.56       0.094
  YS02001613           JUNCTION      0.00   542.04     0  02:04           0         2.1       0.080
  YS02001616           JUNCTION      0.00   541.80     0  02:03           0         2.1       0.022
  YS02001619           JUNCTION   1556.00  1556.00     0  02:03        2.97        4.72      -0.000
  YS02001622           JUNCTION      0.00  1021.08     0  02:02           0        4.36       0.003
  YS02001625           JUNCTION      0.00  1424.09     0  02:05           0        4.58       0.196
  YS02001629           JUNCTION      0.00   979.91     0  02:23           0        3.75       0.020
  YS02001633           JUNCTION   1194.50  1378.82     0  01:55        1.86        5.29       0.068
  YS02001641           JUNCTION      0.00  1378.27     0  01:55           0        4.99       0.060
  YS02001644           JUNCTION   1073.92  1801.20     0  01:55        1.61        6.59       0.051
  YS02001647           JUNCTION      0.00  1801.81     0  01:55           0        5.98       0.007
  YS02001649           JUNCTION      0.00  2059.79     0  01:55           0        7.46       0.005
  YS02001652           JUNCTION      0.00  1096.45     0  02:01           0        1.48      -0.062
  YS02001655           JUNCTION      0.15  1096.28     0  02:01     0.00439        1.48       0.052
  YS02001658           JUNCTION      0.00  1095.89     0  02:01           0        1.47      -0.026
  YS02001661           JUNCTION      0.00  1094.61     0  02:01           0        1.47       0.024
  YS02001664           JUNCTION   1057.63  1057.63     0  02:02        1.47        1.47      -0.009
  YS02001745           JUNCTION    677.55   677.55     0  02:02       0.889        0.89       0.088
  YS02001748           JUNCTION      0.04   714.18     0  02:01     0.00128       0.892      -0.210
  YS02001751           JUNCTION      0.01   714.87     0  02:01    0.000313       0.899       0.043
  YS02001754           JUNCTION      0.26   715.14     0  02:01     0.00741       0.913      -0.082
  YS02001757           JUNCTION      0.00  3406.69     0  02:05           0        11.2       0.031
  YS02001759           JUNCTION    940.08  1433.05     0  02:01        1.23        2.81      -0.003
  YS02001762           JUNCTION      0.00   818.17     0  02:08           0        1.58       0.009
  YS02001765           JUNCTION      0.00   817.90     0  02:08           0        1.58       0.005
  YS02001767           JUNCTION      0.54   817.24     0  02:08      0.0152        1.58       0.008
  YS02001770           JUNCTION   1323.91  1323.91     0  02:02        1.87        1.91       0.002
  YS02001774           JUNCTION      0.00   827.99     0  02:02           0       0.361       0.331
  YS02001779           JUNCTION      0.01   828.56     0  02:02    0.000142       0.321      -0.169
  YS02001783           JUNCTION      0.00  1169.85     0  02:00           0        4.06       0.008
  YS02001784           JUNCTION      1.06  1170.81     0  02:00      0.0302        4.09       0.013
  YS02001786           JUNCTION      0.06  1170.55     0  02:00      0.0016        4.09       0.017
  YS02001788           JUNCTION      0.07  1171.56     0  02:00     0.00202        4.09       0.007
  YS02001790           JUNCTION      0.15  1183.99     0  01:59     0.00442         4.1       0.001
  YS02001791           JUNCTION      0.00  1303.66     0  02:01           0         4.1       0.001
  YS02001793           JUNCTION      0.00  1249.36     0  02:02           0        4.09      -0.001
  YS02001882           JUNCTION      0.00    68.38     0  01:54           0      0.0124       5.805
  YS02001884           JUNCTION      0.00    79.63     0  01:54           0      0.0478       5.492
  YS02001887           JUNCTION   1028.03  1029.82     0  02:01        1.28        1.32       0.344
  YS02001890           JUNCTION      0.00  1030.49     0  02:01           0        1.27       0.407
  YS02001895           JUNCTION      0.00   521.17     0  02:05           0        1.09       0.147
  YS02001898           JUNCTION      0.00   518.11     0  02:05           0        1.09       0.023
  YS02001901           JUNCTION      0.00   518.01     0  02:05           0        1.09       0.299
  YS02001904           JUNCTION      0.00   517.73     0  02:04           0         1.1       0.263
  YS02001907           JUNCTION      0.00  2434.57     0  02:02           0        3.92       0.461
  YS02001910           JUNCTION      0.00  1729.21     0  02:02           0         2.8       0.259
  YS02001915           JUNCTION   1157.72  1728.82     0  02:02        1.78        2.84       0.054
  YS02001918           JUNCTION      0.00   571.86     0  02:02           0        1.09       0.027
  YS02001920           JUNCTION      2.87   571.02     0  02:02      0.0818        1.07       0.100
  YS02001923           JUNCTION      0.04   568.14     0  02:02     0.00107       0.975      -0.076
  YS02001926           JUNCTION      0.05   625.03     0  01:56     0.00149       0.954       0.003
  YS02001929           JUNCTION    558.97   558.97     0  02:03       0.937        0.94      -0.026
  YS02006553           JUNCTION      0.00   798.75     0  02:19           0         2.3       0.516
  YS02006556           JUNCTION      0.00   798.40     0  02:20           0        2.31       0.361
  YS02006558           JUNCTION   1360.35  1360.35     0  02:02        1.88        4.12       0.080
  YS02006561           JUNCTION      0.00  1181.90     0  01:56           0        4.06       0.002
  YS02163301           JUNCTION      0.00   980.51     0  02:23           0        3.74       0.044
  YS02163601           JUNCTION      0.11  1379.01     0  01:55     0.00313        4.98       0.102
  YS02164001           JUNCTION      0.00  1378.82     0  01:55           0        4.98       0.050
  CC-1                 OUTFALL       0.00   683.00     0  00:00           0        4.88       0.000
  CC-2                 OUTFALL       0.00   683.00     0  00:00           0        4.88       0.000
  JK-1                 OUTFALL       0.00  1000.00     0  00:00           0        1.51       0.000
  JK-2                 OUTFALL       0.00  1000.00     0  00:00           0        1.51       0.000
  WSC                  OUTFALL       0.00   551.01     0  03:05           0        5.27       0.000
  CC-storage           STORAGE       0.00  3407.21     0  02:05           0        13.4      -0.341
  JK-storage           STORAGE       0.00  1292.72     0  02:02           0        4.25      -7.522
  
  
  **********************
  Node Surcharge Summary
  **********************
  
  Surcharging occurs when water rises above the top of the highest conduit.
  ---------------------------------------------------------------------
                                               Max. Height   Min. Depth
                                   Hours       Above Crown    Below Rim
  Node                 Type      Surcharged         Meters       Meters
  ---------------------------------------------------------------------
  WS02004404           JUNCTION        0.01          0.020        2.760
  WS02006109           JUNCTION        1.85          0.222        1.598
  WS02006110           JUNCTION        0.12          0.081        1.769
  WS02006112           JUNCTION        1.44          0.079        1.601
  WS02006228           JUNCTION        1.83          0.251        1.949
  WS02006229           JUNCTION        1.86          0.293        2.157
  WS02006230           JUNCTION        0.11          0.112        1.458
  WS02006231           JUNCTION        1.11          1.530        0.000
  WS02006232           JUNCTION        1.94          1.480        0.000
  WS02006234           JUNCTION        1.58          1.240        0.000
  WS02006235           JUNCTION        1.80          1.290        0.000
  WS02006238           JUNCTION        1.89          1.430        0.000
  WS02006239           JUNCTION        1.81          1.290        0.000
  WS02006240           JUNCTION        1.79          1.390        0.000
  WS02006242           JUNCTION        1.92          0.820        0.000
  WS02006243           JUNCTION        1.77          0.770        0.000
  WS02006245           JUNCTION        1.76          0.850        0.000
  WS02006247           JUNCTION        1.79          0.760        0.000
  WS02006248           JUNCTION        1.75          0.380        0.000
  WS02006249           JUNCTION        1.78          0.390        0.000
  WS02006251           JUNCTION        1.48          0.635        0.545
  WS02006252           JUNCTION        2.51          1.100        0.000
  WS02006256           JUNCTION        6.82          2.050        0.000
  YS02001580           JUNCTION        0.65          0.450        0.000
  YS02001583           JUNCTION        0.65          0.500        0.000
  YS02001586           JUNCTION        0.74          0.510        0.000
  YS02001590           JUNCTION        0.82          0.750        0.000
  YS02001593           JUNCTION        0.82          0.713        0.127
  YS02001596           JUNCTION        0.92          0.961        0.109
  YS02001600           JUNCTION        1.09          1.190        0.000
  YS02001601           JUNCTION        1.44          1.440        0.000
  YS02001602           JUNCTION        1.35          1.270        0.000
  YS02001605           JUNCTION        1.30          1.180        0.000
  YS02001607           JUNCTION        0.75          0.680        0.000
  YS02001610           JUNCTION        0.77          0.680        0.000
  YS02001613           JUNCTION        0.74          0.700        0.000
  YS02001616           JUNCTION        0.69          0.610        0.000
  YS02001619           JUNCTION        0.68          0.610        0.000
  YS02001622           JUNCTION        0.67          0.620        0.000
  YS02001625           JUNCTION        0.87          0.780        0.000
  YS02001629           JUNCTION        0.56          0.470        0.000
  YS02001633           JUNCTION        0.87          1.060        0.000
  YS02001641           JUNCTION        0.75          0.965        0.135
  YS02001644           JUNCTION        0.68          0.920        0.000
  YS02001647           JUNCTION        0.43          0.817        0.083
  YS02001649           JUNCTION        0.47          1.050        0.000
  YS02001652           JUNCTION        0.35          1.109        0.021
  YS02001655           JUNCTION        0.27          1.191        0.009
  YS02001658           JUNCTION        0.20          1.300        0.000
  YS02001661           JUNCTION        0.09          0.866        0.524
  YS02001745           JUNCTION        0.01          1.221        0.129
  YS02001748           JUNCTION        0.14          1.190        0.000
  YS02001751           JUNCTION        0.22          1.200        0.000
  YS02001754           JUNCTION        0.27          1.147        0.003
  YS02001757           JUNCTION        0.44          1.210        0.000
  YS02001759           JUNCTION        0.40          1.201        0.009
  YS02001762           JUNCTION        0.38          1.150        0.000
  YS02001765           JUNCTION        0.36          1.100        0.000
  YS02001767           JUNCTION        0.35          1.030        0.000
  YS02001770           JUNCTION        0.34          0.920        0.000
  YS02001774           JUNCTION        0.38          1.002        0.048
  YS02001779           JUNCTION        0.29          0.680        0.000
  YS02001783           JUNCTION        0.57          0.614        0.986
  YS02001784           JUNCTION        0.54          0.418        1.072
  YS02001786           JUNCTION        0.44          0.166        1.264
  YS02001882           JUNCTION        0.51          0.830        0.000
  YS02001884           JUNCTION        0.52          0.851        0.019
  YS02001887           JUNCTION        0.56          0.862        0.088
  YS02001890           JUNCTION        0.57          0.760        0.000
  YS02001895           JUNCTION        0.51          0.651        0.099
  YS02001898           JUNCTION        0.49          0.685        0.055
  YS02001901           JUNCTION        0.55          0.784        0.086
  YS02001904           JUNCTION        0.54          0.670        0.180
  YS02001907           JUNCTION        0.78          0.950        0.000
  YS02001910           JUNCTION        0.60          1.025        0.075
  YS02001915           JUNCTION        0.51          1.000        0.000
  YS02001918           JUNCTION        0.43          0.810        0.000
  YS02001920           JUNCTION        0.44          1.140        0.000
  YS02001923           JUNCTION        0.16          0.820        0.000
  YS02001926           JUNCTION        0.18          0.900        0.000
  YS02001929           JUNCTION        0.02          0.780        0.000
  YS02006553           JUNCTION        0.79          1.013        0.177
  YS02006556           JUNCTION        0.69          0.995        0.355
  YS02006558           JUNCTION        0.68          0.985        0.415
  YS02006561           JUNCTION        0.40          0.310        0.840
  YS02163301           JUNCTION        0.85          0.932        0.098
  YS02163601           JUNCTION        0.90          1.059        0.021
  YS02164001           JUNCTION        0.77          0.973        0.127
  
  
  *********************
  Node Flooding Summary
  *********************
  
  Flooding refers to all water that overflows a node, whether it ponds or not.
  --------------------------------------------------------------------------
                                                             Total   Maximum
                                 Maximum   Time of Max       Flood    Ponded
                        Hours       Rate    Occurrence      Volume     Depth
  Node                 Flooded       LPS   days hr:min    10^6 ltr    Meters
  --------------------------------------------------------------------------
  WS02006231              0.01     32.77      0  02:50       0.000     0.000
  WS02006232              0.01     35.09      0  01:43       0.000     0.000
  WS02006234              0.01     21.88      0  01:43       0.000     0.000
  WS02006235              0.01     47.38      0  01:43       0.000     0.000
  WS02006238              0.01     20.51      0  01:43       0.000     0.000
  WS02006239              0.01      7.42      0  02:47       0.000     0.000
  WS02006240              0.01     47.47      0  01:45       0.000     0.000
  WS02006242              0.02    125.80      0  01:42       0.001     0.000
  WS02006243              0.01    169.64      0  01:44       0.000     0.000
  WS02006245              0.01      5.63      0  02:47       0.000     0.000
  WS02006247              0.01    147.39      0  01:42       0.000     0.000
  WS02006248              0.39    208.65      0  01:41       0.011     0.000
  WS02006249              1.34    174.25      0  01:49       0.141     0.000
  WS02006252              0.01    277.92      0  01:41       0.001     0.000
  WS02006256              1.45    293.19      0  00:00       0.685     0.000
  YS02001580              0.01    112.90      0  01:53       0.001     0.000
  YS02001583              0.01     86.32      0  01:53       0.000     0.000
  YS02001586              0.54    552.84      0  02:04       0.494     0.000
  YS02001590              0.01      6.61      0  01:53       0.000     0.000
  YS02001600              0.01      4.98      0  01:51       0.000     0.000
  YS02001601              0.66   1507.15      0  02:02       1.588     0.000
  YS02001602              0.49     61.93      0  02:01       0.101     0.000
  YS02001605              0.01      3.55      0  01:53       0.000     0.000
  YS02001607              0.01      0.43      0  01:54       0.000     0.000
  YS02001610              0.44    877.81      0  02:04       0.805     0.000
  YS02001613              0.01      0.82      0  01:54       0.000     0.000
  YS02001616              0.01     13.50      0  01:53       0.000     0.000
  YS02001619              0.01     10.27      0  01:53       0.000     0.000
  YS02001622              0.01      0.74      0  01:54       0.000     0.000
  YS02001625              0.37   1424.07      0  02:05       1.128     0.000
  YS02001629              0.16    308.57      0  02:01       0.098     0.000
  YS02001633              0.01      0.59      0  02:02       0.000     0.000
  YS02001644              0.19   1528.00      0  02:01       0.597     0.000
  YS02001649              0.01     85.36      0  01:58       0.000     0.000
  YS02001658              0.01    363.49      0  01:58       0.000     0.000
  YS02001748              0.01    257.45      0  01:58       0.000     0.000
  YS02001751              0.01     16.62      0  01:58       0.000     0.000
  YS02001757              0.01     15.30      0  01:58       0.000     0.000
  YS02001762              0.01     12.22      0  01:58       0.000     0.000
  YS02001765              0.01     11.58      0  01:58       0.000     0.000
  YS02001767              0.01      5.28      0  01:58       0.000     0.000
  YS02001770              0.03     38.46      0  02:01       0.002     0.000
  YS02001779              0.18    828.43      0  02:02       0.305     0.000
  YS02001882              0.01      2.96      0  01:55       0.000     0.000
  YS02001890              0.20    514.99      0  02:01       0.178     0.000
  YS02001907              0.38   2434.43      0  02:02       1.650     0.000
  YS02001915              0.01      0.73      0  02:02       0.000     0.000
  YS02001918              0.01    240.98      0  01:57       0.003     0.000
  YS02001920              0.01     57.31      0  01:56       0.000     0.000
  YS02001923              0.01    333.34      0  01:56       0.001     0.000
  YS02001926              0.01    369.11      0  01:56       0.001     0.000
  YS02001929              0.01    156.72      0  01:56       0.000     0.000
  
  
  **********************
  Storage Volume Summary
  **********************
  
  ------------------------------------------------------------------------------------------------
                         Average    Avg   Evap  Exfil     Maximum    Max    Time of Max    Maximum
                          Volume   Pcnt   Pcnt   Pcnt      Volume   Pcnt     Occurrence    Outflow
  Storage Unit           1000 m³   Full   Loss   Loss     1000 m³   Full    days hr:min        LPS
  ------------------------------------------------------------------------------------------------
  CC-storage               0.680   10.6    0.0    0.0       2.529   39.5       0  02:34    1783.53
  JK-storage               0.001    0.4    0.0    0.0       0.150   51.6       0  00:00    2300.00
  
  
  ***********************
  Outfall Loading Summary
  ***********************
  
  -----------------------------------------------------------
                         Flow       Avg       Max       Total
                         Freq      Flow      Flow      Volume
  Outfall Node           Pcnt       LPS       LPS    10^6 ltr
  -----------------------------------------------------------
  CC-1                  45.97    683.00    683.00       4.878
  CC-2                  45.97    683.00    683.00       4.878
  JK-1                  11.45    998.79   1000.00       1.510
  JK-2                  11.45    998.79   1000.00       1.510
  WSC                   99.95    266.38    551.01       5.267
  -----------------------------------------------------------
  System                42.96   3629.97   3898.33      18.042
  
  
  ********************
  Link Flow Summary
  ********************
  
  -----------------------------------------------------------------------------
                                 Maximum  Time of Max   Maximum    Max/    Max/
                                  |Flow|   Occurrence   |Veloc|    Full    Full
  Link                 Type          LPS  days hr:min     m/sec    Flow   Depth
  -----------------------------------------------------------------------------
  1                    CONDUIT    551.01     0  03:05      2.82    0.19    0.30
  WS02003060WS02003069 CONDUIT    549.45     0  03:03      1.64    0.22    0.34
  WS02003066WSF200     CONDUIT    533.05     0  03:03      2.85    0.09    0.22
  WS02003067WS02003066 CONDUIT    532.98     0  03:02      1.20    0.17    0.41
  WS02003069WS02003072 CONDUIT    549.31     0  03:02      1.37    0.26    0.39
  WS02003072WS02003073 CONDUIT    549.21     0  03:03      1.43    1.19    0.37
  WS02004401WS02004402 CONDUIT    536.28     0  03:00      1.22    0.64    0.89
  WS02004402WS02004403 CONDUIT    538.40     0  03:00      1.24    0.77    0.91
  WS02004403WS02004404 CONDUIT    552.03     0  02:58      1.24    0.40    0.96
  WS02004404WS02004405 CONDUIT    597.87     0  02:58      1.45    5.86    0.97
  WS02004405WS02004406 CONDUIT    541.41     0  03:00      1.46    1.07    0.96
  WS02004406WS02004407 CONDUIT    535.96     0  03:00      1.04    0.24    0.63
  WS02004407WS02004409 CONDUIT    534.92     0  03:00      1.59    0.19    0.48
  WS02004409WS02004410 CONDUIT    534.06     0  03:01      1.06    0.69    0.67
  WS02004410WS02004411 CONDUIT    533.51     0  03:01      1.12    0.73    0.68
  WS02004411WS02004412 CONDUIT    533.36     0  03:02      1.22    0.76    0.69
  WS02004412WS02004413 CONDUIT    533.43     0  03:02      1.22    0.36    0.78
  WS02004413WS02003067 CONDUIT    532.91     0  03:02      1.11    0.23    0.59
  WS02006109WS02006110 CONDUIT    545.27     0  02:54      1.08    1.05    1.00
  WS02006110WS02006113 CONDUIT    557.03     0  02:54      1.32    0.51    0.79
  WS02006111WS02006112 CONDUIT    542.93     0  02:59      1.95    0.26    0.67
  WS02006112WS02006115 CONDUIT    543.88     0  02:59      0.82    0.32    0.88
  WS02006113WS02006111 CONDUIT    561.12     0  02:54      2.47    0.67    0.46
  WS02006115WS02006116 CONDUIT    539.53     0  02:59      1.29    0.69    0.78
  WS02006116WS02004401 CONDUIT    537.59     0  03:00      1.21    0.74    0.86
  WS02006228WS02006109 CONDUIT    543.36     0  02:54      1.08    2.37    1.00
  WS02006229WS02006228 CONDUIT    543.10     0  02:54      1.12    1.80    1.00
  WS02006230WS02006229 CONDUIT    543.10     0  02:54      1.41   12.09    1.00
  WS02006231WS02006230 CONDUIT    583.18     0  03:08      1.53    8.85    1.00
  WS02006232WS02006231 CONDUIT    571.84     0  03:08      1.49    1.20    1.00
  WS02006234WS02006232 CONDUIT    563.34     0  02:51      1.46    1.14    1.00
  WS02006235WS02006234 CONDUIT    557.83     0  03:08      1.45    5.89    1.00
  WS02006238WS02006235 CONDUIT    445.54     0  03:10      1.45    0.99    1.00
  WS02006239WS02006238 CONDUIT    424.93     0  03:12      1.11    1.36    1.00
  WS02006240WS02006239 CONDUIT    420.78     0  03:22      1.29    1.32    1.00
  WS02006242WS02006240 CONDUIT    414.80     0  03:17      1.17    1.65    1.00
  WS02006243WS02006242 CONDUIT    419.36     0  03:16      1.43    0.90    1.00
  WS02006245WS02006243 CONDUIT    429.61     0  01:44      1.44    1.27    1.00
  WS02006247WS02006245 CONDUIT    531.53     0  01:42      1.46    4.21    1.00
  WS02006248WS02006247 CONDUIT    574.60     0  01:42      1.52    1.25    1.00
  WS02006249WS02006248 CONDUIT    622.54     0  01:41      1.64    3.41    1.00
  WS02006251WS02006249 CONDUIT    555.39     0  01:41      1.99    1.60    1.00
  WS02006252WS02006251 CONDUIT    411.78     0  01:50     28.92    1.51    1.00
  WS02006256WS02006235 CONDUIT    288.91     0  00:00      4.23    3.06    1.00
  WSF200WS02003060     CONDUIT    533.31     0  03:03      2.06    0.12    0.28
  YS02001580YS02001583 CONDUIT    128.62     0  01:53      0.69    0.50    1.00
  YS02001583YS02001586 CONDUIT    165.14     0  01:53      0.71    0.25    1.00
  YS02001586YS02001590 CONDUIT    318.17     0  02:05      1.27    0.56    1.00
  YS02001590YS02001593 CONDUIT    318.35     0  02:05      1.13    2.00    1.00
  YS02001593YS02001596 CONDUIT    317.82     0  02:02      1.77    0.50    1.00
  YS02001596YS02001600 CONDUIT    317.96     0  02:05      1.25    0.62    1.00
  YS02001600YS02001601 CONDUIT    318.04     0  02:05      1.12    0.55    1.00
  YS02001601YS02001602 CONDUIT    520.91     0  01:53      1.84    1.88    1.00
  YS02001602YS02001605 CONDUIT    521.45     0  01:52      1.84   11.03    1.00
  YS02001605YS02001607 CONDUIT    522.32     0  01:52      1.85    2.86    1.00
  YS02001607YS02001610 CONDUIT    528.33     0  01:52      0.67    0.50    1.00
  YS02001610YS02001613 CONDUIT    541.63     0  02:04      0.69    0.62    1.00
  YS02001613YS02001616 CONDUIT    542.04     0  02:04      0.69    0.46    1.00
  YS02001616YS02001619 CONDUIT    541.80     0  02:03      0.69    0.94    1.00
  YS02001619YS02001622 CONDUIT   1021.08     0  02:02      1.30    1.50    1.00
  YS02001622YS02001625 CONDUIT   1021.07     0  02:02      1.30    0.54    1.00
  YS02001625YS02001629 CONDUIT    979.91     0  02:23      1.25    0.47    1.00
  YS02001629YS02163301 CONDUIT    980.51     0  02:23      1.25    1.21    1.00
  YS02001633YS02163601 CONDUIT   1378.90     0  01:55      1.76    1.45    1.00
  YS02001641YS02001644 CONDUIT   1377.86     0  01:55      1.75    4.45    1.00
  YS02001644YS02001647 CONDUIT   1801.81     0  01:55      2.29    1.06    1.00
  YS02001647YS02001649 CONDUIT   1810.40     0  01:56      2.33    0.96    1.00
  YS02001649YS02001757 CONDUIT   2058.28     0  01:55      2.62    1.25    1.00
  YS02001652YS02001649 CONDUIT   1096.18     0  02:01      1.40    0.54    1.00
  YS02001655YS02001652 CONDUIT   1096.45     0  02:01      1.40    0.53    1.00
  YS02001658YS02001655 CONDUIT   1096.13     0  02:01      1.90    0.46    1.00
  YS02001661YS02001658 CONDUIT   1095.89     0  02:01      2.34    0.43    1.00
  YS02001664YS02001661 CONDUIT   1094.61     0  02:01      2.37    0.34    0.92
  YS02001745YS02001748 CONDUIT    714.14     0  02:01      2.23    0.27    1.00
  YS02001748YS02001751 CONDUIT    714.86     0  02:01      1.71    0.36    1.00
  YS02001751YS02001754 CONDUIT    714.88     0  02:01      1.40    0.34    1.00
  YS02001754YS02001757 CONDUIT    715.42     0  02:01      0.91    0.29    1.00
  YS02001757CaochengTiaoxuchi CONDUIT   3407.21     0  02:05      7.26    1.47    0.90
  YS02001759YS02001757 CONDUIT   1433.61     0  02:01      1.83    1.02    1.00
  YS02001762YS02001759 CONDUIT    818.66     0  02:08      1.04    0.94    1.00
  YS02001765YS02001762 CONDUIT    818.17     0  02:08      1.04    0.77    1.00
  YS02001767YS02001765 CONDUIT    817.90     0  02:08      1.04    1.03    1.00
  YS02001770YS02001767 CONDUIT    816.71     0  02:08      1.04    3.23    1.00
  YS02001774YS02001770 CONDUIT    827.99     0  02:02      1.05    0.53    1.00
  YS02001779YS02001774 CONDUIT    828.55     0  02:02      1.05    0.42    1.00
  YS02001783YS02001784 CONDUIT   1169.75     0  02:00      2.33    1.61    1.00
  YS02001784YS02001785 CONDUIT   1170.50     0  02:00      2.33    2.72    1.00
  YS02001786YS02001788 CONDUIT   1171.49     0  02:00      2.49    2.26    0.89
  YS02001788YS02001790 CONDUIT   1183.84     0  01:59      2.73    0.87    0.85
  YS02001790YS02001791 CONDUIT   1303.66     0  02:01      3.44    1.42    0.71
  YS02001791YS02001793 CONDUIT   1249.36     0  02:02      6.37    0.54    0.43
  YS02001793JiankangQianchi CONDUIT   1292.72     0  02:02     24.50    0.10    0.50
  YS02001882YS02001884 CONDUIT     68.38     0  01:54      0.13    0.08    1.00
  YS02001884YS02001887 CONDUIT     79.63     0  01:54      0.10    0.11    1.00
  YS02001887YS02001890 CONDUIT   1030.49     0  02:01      1.31    1.76    1.00
  YS02001890YS02001895 CONDUIT    521.17     0  02:05      0.66    0.24    1.00
  YS02001895YS02001898 CONDUIT    518.11     0  02:05      0.66    0.90    1.00
  YS02001898YS02001901 CONDUIT    518.01     0  02:05      0.66    0.33    1.00
  YS02001901YS02001904 CONDUIT    517.73     0  02:04      0.66    0.80    1.00
  YS02001904YS02001907 CONDUIT    518.51     0  02:05      0.66    0.18    1.00
  YS02001907YS02006553 CONDUIT    798.75     0  02:19      0.89    0.94    1.00
  YS02001910YS02001907 CONDUIT   1729.25     0  02:02      2.20    0.97    1.00
  YS02001915YS02001910 CONDUIT   1729.21     0  02:02      2.20    0.86    1.00
  YS02001918YS02001915 CONDUIT    572.41     0  02:02      0.73    0.32    1.00
  YS02001920YS02001918 CONDUIT    571.86     0  02:02      0.73    0.55    1.00
  YS02001923YS02001920 CONDUIT    568.15     0  02:02      0.72    0.26    1.00
  YS02001926YS02001923 CONDUIT    568.11     0  02:02      0.96    0.81    1.00
  YS02001929YS02001926 CONDUIT    567.00     0  02:02      1.14    0.27    1.00
  YS02006553YS02006556 CONDUIT    798.40     0  02:20      1.02    0.68    1.00
  YS02006556YS02006558 CONDUIT    798.82     0  02:20      1.02    0.63    1.00
  YS02006558YS02006561 CONDUIT   1181.90     0  01:56      4.18    2.61    1.00
  YS02006561YS02001783 CONDUIT   1169.85     0  02:00      2.33    0.61    1.00
  YS02163301YS02001633 CONDUIT    980.31     0  02:23      1.25    0.92    1.00
  YS02163601YS02164001 CONDUIT   1378.82     0  01:55      1.76    1.22    1.00
  YS02164001YS02001641 CONDUIT   1378.27     0  01:55      1.75    1.88    1.00
  CC-R1                PUMP       683.00     0  00:00              1.00
  CC-R2                PUMP       683.00     0  00:00              1.00
  CC-S1                PUMP       200.00     0  00:00              1.00
  CC-S2                PUMP       200.00     0  00:00              1.00
  JK-R1                PUMP      1000.00     0  00:00              1.00
  JK-R2                PUMP      1000.00     0  00:00              1.00
  JK-S                 PUMP       300.00     0  00:00              1.00
  
  
  ***************************
  Flow Classification Summary
  ***************************
  
  -------------------------------------------------------------------------------------
                      Adjusted    ---------- Fraction of Time in Flow Class ---------- 
                       /Actual         Up    Down  Sub   Sup   Up    Down  Norm  Inlet 
  Conduit               Length    Dry  Dry   Dry   Crit  Crit  Crit  Crit  Ltd   Ctrl  
  -------------------------------------------------------------------------------------
  1                       1.00   0.00  0.00  0.00  0.00  1.00  0.00  0.00  0.34  0.00
  WS02003060WS02003069    1.00   0.00  0.00  0.00  0.98  0.02  0.00  0.00  0.73  0.00
  WS02003066WSF200        1.00   0.05  0.00  0.00  0.00  0.95  0.00  0.00  0.86  0.00
  WS02003067WS02003066    1.00   0.05  0.00  0.00  0.95  0.00  0.00  0.00  0.00  0.00
  WS02003069WS02003072    1.00   0.00  0.00  0.00  0.99  0.01  0.00  0.00  0.76  0.00
  WS02003072WS02003073    1.00   0.00  0.00  0.00  0.00  0.00  0.00  1.00  0.00  0.00
  WS02004401WS02004402    1.00   0.02  0.00  0.00  0.98  0.00  0.00  0.00  0.00  0.00
  WS02004402WS02004403    1.00   0.02  0.00  0.00  0.98  0.00  0.00  0.00  0.00  0.00
  WS02004403WS02004404    1.00   0.00  0.03  0.00  0.97  0.00  0.00  0.00  0.00  0.00
  WS02004404WS02004405    1.00   0.00  0.00  0.00  1.00  0.00  0.00  0.00  0.02  0.00
  WS02004405WS02004406    1.00   0.00  0.00  0.00  1.00  0.00  0.00  0.00  0.00  0.00
  WS02004406WS02004407    1.00   0.00  0.03  0.00  0.97  0.00  0.00  0.00  0.00  0.00
  WS02004407WS02004409    1.00   0.03  0.00  0.00  0.95  0.01  0.00  0.00  0.96  0.00
  WS02004409WS02004410    1.00   0.03  0.00  0.00  0.96  0.00  0.00  0.00  0.00  0.00
  WS02004410WS02004411    1.00   0.04  0.00  0.00  0.96  0.00  0.00  0.00  0.00  0.00
  WS02004411WS02004412    1.00   0.04  0.00  0.00  0.96  0.00  0.00  0.00  0.00  0.00
  WS02004412WS02004413    1.00   0.04  0.00  0.00  0.96  0.00  0.00  0.00  0.00  0.00
  WS02004413WS02003067    1.00   0.04  0.01  0.00  0.00  0.00  0.95  0.00  0.00  0.00
  WS02006109WS02006110    1.00   0.00  0.01  0.00  0.98  0.00  0.01  0.00  0.00  0.00
  WS02006110WS02006113    1.00   0.01  0.01  0.00  0.98  0.00  0.00  0.00  0.00  0.00
  WS02006111WS02006112    1.00   0.02  0.00  0.00  0.98  0.00  0.00  0.00  0.98  0.00
  WS02006112WS02006115    1.00   0.02  0.00  0.00  0.97  0.00  0.00  0.00  0.00  0.00
  WS02006113WS02006111    1.00   0.02  0.00  0.00  0.00  0.98  0.00  0.00  0.14  0.00
  WS02006115WS02006116    1.00   0.02  0.00  0.00  0.97  0.00  0.00  0.01  0.00  0.00
  WS02006116WS02004401    1.00   0.02  0.00  0.00  0.98  0.00  0.00  0.00  0.00  0.00
  WS02006228WS02006109    1.00   0.00  0.00  0.00  1.00  0.00  0.00  0.00  0.01  0.00
  WS02006229WS02006228    1.00   0.00  0.00  0.00  0.99  0.00  0.00  0.01  0.00  0.00
  WS02006230WS02006229    1.00   0.00  0.00  0.00  0.99  0.00  0.00  0.01  0.03  0.00
  WS02006231WS02006230    1.00   0.00  0.00  0.00  0.26  0.00  0.74  0.00  0.00  0.00
  WS02006232WS02006231    1.00   0.00  0.00  0.00  0.99  0.00  0.01  0.00  0.00  0.00
  WS02006234WS02006232    1.00   0.00  0.00  0.00  1.00  0.00  0.00  0.00  0.01  0.00
  WS02006235WS02006234    1.00   0.00  0.00  0.00  0.95  0.00  0.05  0.00  0.00  0.00
  WS02006238WS02006235    1.00   0.00  0.00  0.00  1.00  0.00  0.00  0.00  0.01  0.00
  WS02006239WS02006238    1.00   0.00  0.00  0.00  1.00  0.00  0.00  0.00  0.07  0.00
  WS02006240WS02006239    1.00   0.00  0.00  0.00  0.91  0.00  0.00  0.09  0.22  0.00
  WS02006242WS02006240    1.00   0.00  0.00  0.00  0.91  0.00  0.09  0.00  0.00  0.00
  WS02006243WS02006242    1.00   0.00  0.00  0.00  0.98  0.00  0.00  0.02  0.57  0.00
  WS02006245WS02006243    1.00   0.00  0.00  0.00  0.69  0.00  0.00  0.31  0.02  0.00
  WS02006247WS02006245    1.00   0.00  0.00  0.00  0.98  0.00  0.00  0.02  0.00  0.00
  WS02006248WS02006247    1.00   0.00  0.00  0.00  0.98  0.00  0.00  0.02  0.31  0.00
  WS02006249WS02006248    1.00   0.00  0.00  0.00  0.44  0.00  0.56  0.00  0.00  0.00
  WS02006251WS02006249    1.00   0.00  0.00  0.00  0.99  0.01  0.00  0.00  0.58  0.00
  WS02006252WS02006251    1.00   0.00  0.60  0.00  0.19  0.00  0.21  0.00  0.00  0.00
  WS02006256WS02006235    1.00   0.00  0.00  0.00  0.96  0.04  0.00  0.00  0.01  0.00
  WSF200WS02003060        1.00   0.00  0.05  0.00  0.27  0.68  0.00  0.00  0.66  0.00
  YS02001580YS02001583    1.00   0.23  0.57  0.00  0.20  0.00  0.00  0.00  0.66  0.00
  YS02001583YS02001586    1.00   0.41  0.33  0.00  0.25  0.00  0.00  0.00  0.66  0.00
  YS02001586YS02001590    1.00   0.13  0.00  0.00  0.43  0.04  0.00  0.40  0.37  0.00
  YS02001590YS02001593    1.00   0.13  0.01  0.00  0.12  0.00  0.75  0.00  0.00  0.00
  YS02001593YS02001596    1.00   0.14  0.00  0.00  0.14  0.01  0.00  0.72  0.02  0.00
  YS02001596YS02001600    1.00   0.14  0.00  0.00  0.20  0.01  0.00  0.65  0.04  0.00
  YS02001600YS02001601    1.00   0.13  0.01  0.00  0.86  0.00  0.00  0.00  0.60  0.00
  YS02001601YS02001602    1.00   0.13  0.01  0.00  0.86  0.00  0.00  0.00  0.00  0.00
  YS02001602YS02001605    1.00   0.14  0.00  0.00  0.86  0.00  0.00  0.00  0.00  0.00
  YS02001605YS02001607    1.00   0.14  0.00  0.00  0.86  0.00  0.00  0.00  0.00  0.00
  YS02001607YS02001610    1.00   0.13  0.01  0.00  0.86  0.00  0.00  0.00  0.01  0.00
  YS02001610YS02001613    1.00   0.13  0.00  0.00  0.87  0.00  0.00  0.00  0.00  0.00
  YS02001613YS02001616    1.00   0.13  0.00  0.00  0.87  0.00  0.00  0.00  0.00  0.00
  YS02001616YS02001619    1.00   0.13  0.00  0.00  0.87  0.00  0.00  0.00  0.00  0.00
  YS02001619YS02001622    1.00   0.13  0.00  0.00  0.87  0.00  0.00  0.00  0.28  0.00
  YS02001622YS02001625    1.00   0.13  0.00  0.00  0.87  0.00  0.00  0.00  0.04  0.00
  YS02001625YS02001629    1.00   0.13  0.05  0.00  0.16  0.00  0.66  0.00  0.00  0.00
  YS02001629YS02163301    1.00   0.16  0.01  0.00  0.83  0.00  0.00  0.00  0.00  0.00
  YS02001633YS02163601    1.00   0.00  0.01  0.00  0.99  0.00  0.00  0.00  0.15  0.00
  YS02001641YS02001644    1.00   0.00  0.01  0.00  0.99  0.00  0.00  0.00  0.00  0.00
  YS02001644YS02001647    1.00   0.00  0.17  0.00  0.83  0.00  0.00  0.00  0.00  0.00
  YS02001647YS02001649    1.00   0.00  0.17  0.00  0.50  0.33  0.00  0.00  0.56  0.00
  YS02001649YS02001757    1.00   0.00  0.00  0.00  0.83  0.17  0.00  0.00  0.74  0.00
  YS02001652YS02001649    1.00   0.00  0.00  0.00  0.96  0.04  0.00  0.00  0.74  0.00
  YS02001655YS02001652    1.00   0.00  0.00  0.00  0.18  0.01  0.00  0.80  0.09  0.00
  YS02001658YS02001655    1.00   0.00  0.14  0.00  0.61  0.25  0.00  0.00  0.72  0.00
  YS02001661YS02001658    1.00   0.14  0.00  0.00  0.44  0.41  0.00  0.00  0.71  0.00
  YS02001664YS02001661    1.00   0.13  0.00  0.00  0.74  0.13  0.00  0.00  0.85  0.00
  YS02001745YS02001748    1.00   0.00  0.00  0.00  0.04  0.01  0.00  0.95  0.02  0.00
  YS02001748YS02001751    1.00   0.00  0.00  0.00  0.76  0.24  0.00  0.00  0.83  0.00
  YS02001751YS02001754    1.00   0.00  0.00  0.00  0.12  0.01  0.00  0.87  0.05  0.00
  YS02001754YS02001757    1.00   0.00  0.00  0.00  1.00  0.00  0.00  0.00  0.85  0.00
  YS02001757CaochengTiaoxuchi    1.00   0.00  0.00  0.00  0.11  0.89  0.00  0.00  0.11  0.00
  YS02001759YS02001757    1.00   0.00  0.00  0.00  1.00  0.00  0.00  0.00  0.65  0.00
  YS02001762YS02001759    1.00   0.00  0.00  0.00  1.00  0.00  0.00  0.00  0.06  0.00
  YS02001765YS02001762    1.00   0.00  0.00  0.00  1.00  0.00  0.00  0.00  0.72  0.00
  YS02001767YS02001765    1.00   0.00  0.00  0.00  1.00  0.00  0.00  0.00  0.00  0.00
  YS02001770YS02001767    1.00   0.00  0.00  0.00  1.00  0.00  0.00  0.00  0.00  0.00
  YS02001774YS02001770    1.00   0.00  0.13  0.00  0.71  0.00  0.16  0.00  0.03  0.00
  YS02001779YS02001774    1.00   0.00  0.00  0.00  1.00  0.00  0.00  0.00  0.79  0.00
  YS02001783YS02001784    1.00   0.00  0.18  0.00  0.82  0.00  0.00  0.00  0.55  0.00
  YS02001784YS02001785    1.00   0.00  0.00  0.00  1.00  0.00  0.00  0.00  0.17  0.00
  YS02001786YS02001788    1.00   0.00  0.00  0.00  0.80  0.20  0.00  0.00  0.00  0.00
  YS02001788YS02001790    1.00   0.00  0.00  0.00  0.21  0.79  0.00  0.00  0.80  0.00
  YS02001790YS02001791    1.00   0.00  0.00  0.00  0.01  0.99  0.00  0.00  0.15  0.00
  YS02001791YS02001793    1.00   0.00  0.00  0.00  0.00  1.00  0.00  0.00  0.01  0.00
  YS02001793JiankangQianchi    1.00   0.00  0.00  0.00  0.00  1.00  0.00  0.00  0.21  0.00
  YS02001882YS02001884    1.00   0.15  0.01  0.00  0.84  0.00  0.00  0.00  0.00  0.00
  YS02001884YS02001887    1.00   0.06  0.05  0.00  0.89  0.00  0.00  0.00  0.00  0.00
  YS02001887YS02001890    1.00   0.00  0.00  0.00  0.97  0.00  0.03  0.00  0.00  0.00
  YS02001890YS02001895    1.00   0.00  0.16  0.00  0.83  0.00  0.00  0.00  0.00  0.00
  YS02001895YS02001898    1.00   0.17  0.00  0.00  0.81  0.00  0.02  0.00  0.00  0.00
  YS02001898YS02001901    1.00   0.17  0.00  0.00  0.83  0.00  0.00  0.00  0.01  0.00
  YS02001901YS02001904    1.00   0.17  0.00  0.00  0.83  0.00  0.00  0.00  0.00  0.00
  YS02001904YS02001907    1.00   0.00  0.17  0.00  0.83  0.00  0.00  0.00  0.00  0.00
  YS02001907YS02006553    1.00   0.00  0.02  0.00  0.98  0.00  0.00  0.00  0.00  0.00
  YS02001910YS02001907    1.00   0.00  0.00  0.00  0.97  0.00  0.00  0.03  0.12  0.00
  YS02001915YS02001910    1.00   0.00  0.00  0.00  0.96  0.04  0.00  0.00  0.16  0.00
  YS02001918YS02001915    1.00   0.00  0.01  0.00  0.98  0.02  0.00  0.00  0.75  0.00
  YS02001920YS02001918    1.00   0.00  0.01  0.00  0.99  0.00  0.00  0.00  0.00  0.00
  YS02001923YS02001920    1.00   0.00  0.00  0.00  1.00  0.00  0.00  0.00  0.92  0.00
  YS02001926YS02001923    1.00   0.00  0.07  0.00  0.06  0.00  0.86  0.00  0.00  0.00
  YS02001929YS02001926    1.00   0.00  0.13  0.00  0.87  0.00  0.00  0.00  0.81  0.00
  YS02006553YS02006556    1.00   0.01  0.00  0.00  0.99  0.00  0.00  0.00  0.03  0.00
  YS02006556YS02006558    1.00   0.00  0.00  0.00  1.00  0.00  0.00  0.00  0.00  0.00
  YS02006558YS02006561    1.00   0.18  0.00  0.00  0.06  0.76  0.00  0.00  0.18  0.00
  YS02006561YS02001783    1.00   0.18  0.00  0.00  0.09  0.73  0.00  0.00  0.68  0.00
  YS02163301YS02001633    1.00   0.00  0.15  0.00  0.85  0.00  0.00  0.00  0.00  0.00
  YS02163601YS02164001    1.00   0.00  0.08  0.00  0.92  0.00  0.00  0.00  0.00  0.00
  YS02164001YS02001641    1.00   0.01  0.08  0.00  0.92  0.00  0.00  0.00  0.06  0.00
  
  
  *************************
  Conduit Surcharge Summary
  *************************
  
  ----------------------------------------------------------------------------
                                                           Hours        Hours 
                         --------- Hours Full --------   Above Full   Capacity
  Conduit                Both Ends  Upstream  Dnstream   Normal Flow   Limited
  ----------------------------------------------------------------------------
  WS02003072WS02003073        0.01      0.01      0.01      1.55         0.01
  WS02004403WS02004404        0.01      0.01      0.01      0.01         0.01
  WS02004404WS02004405        0.01      0.01      0.01      3.13         0.01
  WS02004405WS02004406        0.01      0.01      0.01      0.90         0.01
  WS02006109WS02006110        0.12      0.12      1.92      0.18         0.01
  WS02006110WS02006113        0.01      0.01      1.90      0.01         0.01
  WS02006111WS02006112        0.01      0.01      2.12      0.01         0.01
  WS02006112WS02006115        0.01      0.01      1.44      0.01         0.01
  WS02006228WS02006109        1.85      1.93      1.85      2.39         1.85
  WS02006229WS02006228        1.83      1.86      1.83      2.17         1.83
  WS02006230WS02006229        2.02      2.11      2.02      4.13         2.02
  WS02006231WS02006230        0.10      0.10      1.36      3.45         0.01
  WS02006232WS02006231        1.08      1.08      1.94      1.27         0.01
  WS02006234WS02006232        1.78      1.78      1.94      0.82         0.78
  WS02006235WS02006234        1.53      1.56      1.78      3.11         0.23
  WS02006238WS02006235        1.84      1.85      1.96      0.01         0.07
  WS02006239WS02006238        1.87      1.93      1.89      1.95         1.17
  WS02006240WS02006239        1.78      1.82      1.80      1.94         1.15
  WS02006242WS02006240        1.79      1.79      2.00      2.22         0.02
  WS02006243WS02006242        1.80      1.80      1.92      0.01         0.31
  WS02006245WS02006243        1.75      1.77      1.77      1.96         1.07
  WS02006247WS02006245        1.75      1.81      1.75      2.56         1.52
  WS02006248WS02006247        1.76      1.77      1.79      0.01         0.55
  WS02006249WS02006248        1.74      1.75      1.78      2.48         0.01
  WS02006251WS02006249        1.77      1.81      1.78      2.36         1.63
  WS02006252WS02006251        2.51      2.51      2.51      2.51         0.01
  WS02006256WS02006235        2.37      3.20      5.79      1.80         0.06
  YS02001580YS02001583        0.65      0.65      0.67      0.01         0.01
  YS02001583YS02001586        0.65      0.65      0.74      0.01         0.01
  YS02001586YS02001590        0.75      0.75      0.82      0.01         0.01
  YS02001590YS02001593        0.82      0.82      0.84      0.90         0.01
  YS02001593YS02001596        0.83      0.83      0.92      0.01         0.01
  YS02001596YS02001600        0.97      0.97      1.09      0.01         0.01
  YS02001600YS02001601        1.16      1.16      1.44      0.01         0.01
  YS02001601YS02001602        1.35      1.35      1.48      1.11         0.01
  YS02001602YS02001605        1.30      1.30      1.35      2.26         0.01
  YS02001605YS02001607        1.24      1.30      1.24      1.41         1.24
  YS02001607YS02001610        0.75      0.75      0.77      0.01         0.01
  YS02001610YS02001613        0.74      0.74      0.77      0.01         0.01
  YS02001613YS02001616        0.69      0.69      0.74      0.01         0.01
  YS02001616YS02001619        0.68      0.68      0.69      0.01         0.07
  YS02001619YS02001622        0.67      0.68      0.67      0.86         0.65
  YS02001622YS02001625        0.67      0.67      0.87      0.01         0.01
  YS02001625YS02001629        0.56      0.56      0.87      0.01         0.01
  YS02001629YS02163301        0.84      0.84      0.85      0.38         0.36
  YS02001633YS02163601        0.87      0.87      0.90      0.50         0.50
  YS02001641YS02001644        0.68      0.75      0.68      1.51         0.67
  YS02001644YS02001647        0.43      0.43      0.68      0.04         0.01
  YS02001647YS02001649        0.43      0.43      0.47      0.01         0.01
  YS02001649YS02001757        0.44      0.47      0.44      0.40         0.28
  YS02001652YS02001649        0.36      0.36      0.47      0.01         0.01
  YS02001655YS02001652        0.27      0.27      0.35      0.01         0.01
  YS02001658YS02001655        0.20      0.20      0.27      0.01         0.01
  YS02001661YS02001658        0.09      0.09      0.20      0.01         0.01
  YS02001664YS02001661        0.01      0.01      0.12      0.01         0.01
  YS02001745YS02001748        0.01      0.01      0.14      0.01         0.01
  YS02001748YS02001751        0.18      0.18      0.22      0.01         0.01
  YS02001751YS02001754        0.22      0.22      0.27      0.01         0.01
  YS02001754YS02001757        0.29      0.29      0.44      0.01         0.01
  YS02001757CaochengTiaoxuchi        0.01      0.44      0.01      0.55         0.01
  YS02001759YS02001757        0.40      0.40      0.44      0.04         0.06
  YS02001762YS02001759        0.38      0.38      0.40      0.01         0.03
  YS02001765YS02001762        0.36      0.36      0.38      0.01         0.01
  YS02001767YS02001765        0.35      0.35      0.36      0.01         0.05
  YS02001770YS02001767        0.35      0.35      0.35      0.61         0.34
  YS02001774YS02001770        0.34      0.34      0.38      0.01         0.01
  YS02001779YS02001774        0.29      0.29      0.38      0.01         0.01
  YS02001783YS02001784        0.54      0.57      0.54      0.71         0.54
  YS02001784YS02001785        0.44      0.54      0.44      0.94         0.44
  YS02001786YS02001788        0.01      0.44      0.01      0.80         0.01
  YS02001790YS02001791        0.01      0.01      0.01      0.53         0.01
  YS02001882YS02001884        0.51      0.51      0.52      0.01         0.01
  YS02001884YS02001887        0.55      0.55      0.56      0.01         0.01
  YS02001887YS02001890        0.57      0.57      0.58      0.16         0.01
  YS02001890YS02001895        0.51      0.51      0.60      0.01         0.01
  YS02001895YS02001898        0.49      0.49      0.51      0.01         0.01
  YS02001898YS02001901        0.51      0.51      0.55      0.01         0.01
  YS02001901YS02001904        0.54      0.54      0.55      0.01         0.01
  YS02001904YS02001907        0.54      0.54      0.79      0.01         0.01
  YS02001907YS02006553        0.95      0.95      1.01      0.01         0.01
  YS02001910YS02001907        0.60      0.60      0.77      0.01         0.01
  YS02001915YS02001910        0.51      0.51      0.60      0.01         0.01
  YS02001918YS02001915        0.43      0.43      0.51      0.01         0.01
  YS02001920YS02001918        0.43      0.43      0.44      0.01         0.01
  YS02001923YS02001920        0.39      0.39      0.44      0.01         0.01
  YS02001926YS02001923        0.16      0.16      0.18      0.01         0.01
  YS02001929YS02001926        0.02      0.02      0.18      0.01         0.01
  YS02006553YS02006556        0.68      0.68      0.79      0.01         0.01
  YS02006556YS02006558        0.73      0.73      0.80      0.01         0.01
  YS02006558YS02006561        0.46      0.68      0.46      0.89         0.46
  YS02006561YS02001783        0.40      0.40      0.57      0.01         0.01
  YS02163301YS02001633        0.85      0.85      0.90      0.01         0.03
  YS02163601YS02164001        0.77      0.77      0.90      0.31         0.01
  YS02164001YS02001641        0.75      0.77      0.75      0.75         0.55
  
  
  ***************
  Pumping Summary
  ***************
  
  ---------------------------------------------------------------------------------------------------------
                                                  Min       Avg       Max     Total     Power    % Time Off
                        Percent   Number of      Flow      Flow      Flow    Volume     Usage    Pump Curve
  Pump                 Utilized   Start-Ups       LPS       LPS       LPS  10^6 ltr     Kw-hr    Low   High
  ---------------------------------------------------------------------------------------------------------
  CC-R1                   25.06           6      0.00    683.00    683.00     4.877     79.65    0.0  100.0
  CC-R2                   25.06           6      0.00    683.00    683.00     4.877     79.65    0.0  100.0
  CC-S1                   31.77          16      0.00    200.00    200.00     1.811     14.68    0.0   45.7
  CC-S2                   31.77          16      0.00    200.00    200.00     1.811     14.68    0.0   45.7
  JK-R1                    5.41         409      0.00    998.79   1000.00     1.538      3.76    0.0    0.0
  JK-R2                    5.41         409      0.00    998.79   1000.00     1.538      3.76    0.0    0.0
  JK-S                    19.11         661      0.00    296.58    300.00     1.580     36.21    0.0    0.0
  

  Analysis begun on:  Thu Jan 16 14:22:57 2025
  Analysis ended on:  Thu Jan 16 14:22:58 2025
  Total elapsed time: 00:00:01