
  EPA STORM WATER MANAGEMENT MODEL - VERSION 5.2 (Build 5.2.4)
  PYSWMM TOOLKIT API - VERSION v1.0 (2023-11-27)
  ------------------------------------------------------------

  WARNING 04: minimum elevation drop used for Conduit WS02004404WS02004405
  WARNING 03: negative offset ignored for Link YS02001904YS02001907
  
  ****************
  Analysis Options
  ****************
  Flow Units ............... LPS
  Process Models:
    Rainfall/Runoff ........ YES
    RDII ................... NO
    Snowmelt ............... NO
    Groundwater ............ NO
    Flow Routing ........... YES
    Ponding Allowed ........ NO
    Water Quality .......... NO
  Infiltration Method ...... HORTON
  Flow Routing Method ...... DYNWAVE
  Surcharge Method ......... EXTRAN
  Starting Date ............ 08/28/2015 08:00:00
  Ending Date .............. 08/28/2015 16:00:00
  Antecedent Dry Days ...... 8.0
  Report Time Step ......... 00:01:00
  Wet Time Step ............ 00:01:00
  Dry Time Step ............ 00:01:00
  Routing Time Step ........ 30.00 sec
  Variable Time Step ....... YES
  Maximum Trials ........... 8
  Number of Threads ........ 4
  Head Tolerance ........... 0.001500 m
  
  
  **************************        Volume         Depth
  Runoff Quantity Continuity     hectare-m            mm
  **************************     ---------       -------
  Total Precipitation ......         2.789        84.091
  Evaporation Loss .........         0.000         0.000
  Infiltration Loss ........         0.101         3.054
  Surface Runoff ...........         2.656        80.063
  Final Storage ............         0.033         0.997
  Continuity Error (%) .....        -0.027
  
  
  **************************        Volume        Volume
  Flow Routing Continuity        hectare-m      10^6 ltr
  **************************     ---------     ---------
  Dry Weather Inflow .......         0.025         0.248
  Wet Weather Inflow .......         2.655        26.551
  Groundwater Inflow .......         0.000         0.000
  RDII Inflow ..............         0.000         0.000
  External Inflow ..........         0.083         0.825
  External Outflow .........         2.072        20.716
  Flooding Loss ............         0.964         9.638
  Evaporation Loss .........         0.000         0.000
  Exfiltration Loss ........         0.000         0.000
  Initial Stored Volume ....         0.243         2.431
  Final Stored Volume ......         0.040         0.405
  Continuity Error (%) .....        -2.343
  
  
  *************************
  Highest Continuity Errors
  *************************
  Node WS02006256 (-14.14%)
  Node YS02001583 (-12.50%)
  Node JK-storage (-8.76%)
  Node YS02001884 (5.09%)
  
  
  ***************************
  Time-Step Critical Elements
  ***************************
  Link WS02006238WS02006235 (36.51%)
  Link YS02001793JiankangQianchi (33.86%)
  Link WS02003066WSF200 (6.49%)
  Link WS02004404WS02004405 (5.55%)
  Link WS02006232WS02006231 (1.93%)
  
  
  ********************************
  Highest Flow Instability Indexes
  ********************************
  Link WS02006229WS02006228 (50)
  Link WS02006256WS02006235 (43)
  Link WS02006252WS02006251 (40)
  Link WS02006113WS02006111 (38)
  Link WS02006228WS02006109 (37)
  
  
  *********************************
  Most Frequent Nonconverging Nodes
  *********************************
  Node CC-1 (51.72%)
  Node CC-2 (51.72%)
  Node JK-1 (51.72%)
  Node JK-2 (51.72%)
  Node WSC (51.72%)
  
  
  *************************
  Routing Time Step Summary
  *************************
  Minimum Time Step           :     0.01 sec
  Average Time Step           :     2.48 sec
  Maximum Time Step           :     6.43 sec
  % of Time in Steady State   :     0.00
  Average Iterations per Step :     5.59
  % of Steps Not Converging   :    51.72
  Time Step Frequencies       :
     30.000 - 13.228 sec      :     0.00 %
     13.228 -  5.833 sec      :     3.86 %
      5.833 -  2.572 sec      :    35.20 %
      2.572 -  1.134 sec      :    43.86 %
      1.134 -  0.500 sec      :    17.08 %
  
  
  ***************************
  Subcatchment Runoff Summary
  ***************************
  
  ------------------------------------------------------------------------------------------------------------------------------
                            Total      Total      Total      Total     Imperv       Perv      Total       Total     Peak  Runoff
                           Precip      Runon       Evap      Infil     Runoff     Runoff     Runoff      Runoff   Runoff   Coeff
  Subcatchment                 mm         mm         mm         mm         mm         mm         mm    10^6 ltr      LPS
  ------------------------------------------------------------------------------------------------------------------------------
  sub60                     84.09       0.00       0.00       1.85      72.81       8.24      81.05        1.06   682.87   0.964
  sub61                     84.09       0.00       0.00       2.68      68.67      11.62      80.29        1.47   943.84   0.955
  sub62                     84.09       0.00       0.00       1.24      76.08       5.50      81.58        2.24  1327.97   0.970
  sub63                     84.09       0.00       0.00       4.92      58.74      19.47      78.21        1.78  1044.66   0.930
  sub64                     84.09       0.00       0.00       2.49      70.28      10.13      80.40        1.93  1073.49   0.956
  sub65                     84.09       0.00       0.00       2.16      71.91       8.78      80.69        2.22  1197.95   0.960
  sub66                     84.09       0.00       0.00       6.03      58.63      18.36      76.99        3.59  1546.12   0.916
  sub67                     84.09       0.00       0.00       1.19      76.13       5.54      81.67        1.52  1038.30   0.971
  sub68                     84.09       0.00       0.00       2.22      71.14       9.55      80.69        2.22  1363.13   0.960
  sub69                     84.09       0.00       0.00       1.98      71.37      10.64      82.01        3.04  1599.51   0.975
  sub70                     84.09       0.00       0.00       6.52      55.34      22.08      77.41        2.24   870.02   0.921
  sub71                     84.09       0.00       0.00       1.27      76.04       5.46      81.51        2.13  1163.50   0.969
  sub72                     84.09       0.00       0.00       1.12      76.81       4.76      81.57        1.12   558.92   0.970
  
  
  ******************
  Node Depth Summary
  ******************
  
  ---------------------------------------------------------------------------------
                                 Average  Maximum  Maximum  Time of Max    Reported
                                   Depth    Depth      HGL   Occurrence   Max Depth
  Node                 Type       Meters   Meters   Meters  days hr:min      Meters
  ---------------------------------------------------------------------------------
  WS02003060           JUNCTION     0.25     0.38     5.31     0  03:06        0.38
  WS02003066           JUNCTION     0.20     0.30     5.85     0  03:05        0.30
  WS02003067           JUNCTION     0.51     0.70     6.02     0  03:05        0.70
  WS02003069           JUNCTION     0.27     0.43     5.01     0  03:06        0.43
  WS02003072           JUNCTION     0.33     0.50     4.87     0  03:07        0.50
  WS02003073           JUNCTION     0.19     0.30     4.36     0  03:08        0.30
  WS02004401           JUNCTION     0.62     0.87     6.87     0  03:02        0.87
  WS02004402           JUNCTION     0.65     0.90     6.86     0  03:04        0.90
  WS02004403           JUNCTION     0.67     0.92     6.85     0  03:01        0.91
  WS02004404           JUNCTION     0.74     1.02     6.87     0  03:01        1.00
  WS02004405           JUNCTION     0.73     0.97     6.82     0  03:02        0.96
  WS02004406           JUNCTION     0.74     0.96     6.79     0  03:04        0.96
  WS02004407           JUNCTION     0.19     0.30     6.61     0  03:04        0.30
  WS02004409           JUNCTION     0.41     0.67     6.44     0  03:05        0.67
  WS02004410           JUNCTION     0.44     0.68     6.40     0  03:04        0.68
  WS02004411           JUNCTION     0.46     0.69     6.37     0  03:04        0.69
  WS02004412           JUNCTION     0.47     0.70     6.34     0  03:04        0.70
  WS02004413           JUNCTION     0.63     0.86     6.33     0  03:05        0.86
  WS02006109           JUNCTION     0.70     1.04     7.66     0  02:59        1.01
  WS02006110           JUNCTION     0.69     0.99     7.58     0  02:59        0.95
  WS02006111           JUNCTION     0.19     0.29     6.99     0  02:56        0.29
  WS02006112           JUNCTION     0.78     1.09     6.97     0  03:03        1.07
  WS02006113           JUNCTION     0.29     0.46     7.35     0  02:56        0.46
  WS02006115           JUNCTION     0.51     0.77     6.91     0  03:03        0.77
  WS02006116           JUNCTION     0.59     0.85     6.89     0  03:02        0.85
  WS02006228           JUNCTION     0.70     1.18     7.83     0  03:06        1.18
  WS02006229           JUNCTION     0.68     1.22     7.91     0  03:06        1.22
  WS02006230           JUNCTION     0.70     1.21     7.96     0  02:59        1.17
  WS02006231           JUNCTION     0.49     1.61     8.73     0  01:41        1.61
  WS02006232           JUNCTION     0.64     2.18     9.22     0  02:49        2.18
  WS02006234           JUNCTION     0.58     1.96     9.12     0  02:29        1.96
  WS02006235           JUNCTION     0.63     2.00     9.16     0  02:29        2.00
  WS02006238           JUNCTION     0.66     2.15     9.29     0  02:29        2.15
  WS02006239           JUNCTION     0.63     1.95     9.16     0  02:29        1.85
  WS02006240           JUNCTION     0.60     2.10     9.39     0  02:14        2.10
  WS02006242           JUNCTION     0.67     1.55     8.82     0  01:34        1.55
  WS02006243           JUNCTION     0.59     1.48     8.90     0  01:35        1.48
  WS02006245           JUNCTION     0.59     1.56     9.04     0  01:58        1.56
  WS02006247           JUNCTION     0.61     1.47     8.97     0  01:31        1.47
  WS02006248           JUNCTION     0.58     1.10     8.69     0  01:30        1.10
  WS02006249           JUNCTION     0.60     1.09     8.69     0  01:30        1.09
  WS02006251           JUNCTION     0.60     1.24     8.91     0  01:32        1.18
  WS02006252           JUNCTION     0.38     1.50     9.74     0  00:00        0.75
  WS02006256           JUNCTION     1.18     2.35     9.28     0  00:00        2.35
  WSF200               JUNCTION     0.18     0.29     5.52     0  03:05        0.29
  YS02001580           JUNCTION     0.19     1.05     9.59     0  01:33        0.77
  YS02001583           JUNCTION     0.22     1.14     9.64     0  01:33        0.84
  YS02001586           JUNCTION     0.34     1.13     9.30     0  01:32        1.13
  YS02001590           JUNCTION     0.47     1.40     9.26     0  01:32        1.40
  YS02001593           JUNCTION     0.40     1.36     9.23     0  01:33        1.30
  YS02001596           JUNCTION     0.54     1.70     9.12     0  01:33        1.66
  YS02001600           JUNCTION     0.64     1.87     9.00     0  01:32        1.87
  YS02001601           JUNCTION     0.82     2.06     8.90     0  01:32        2.06
  YS02001602           JUNCTION     0.71     1.87     8.77     0  01:33        1.87
  YS02001605           JUNCTION     0.66     1.78     8.68     0  02:01        1.78
  YS02001607           JUNCTION     0.61     1.66     8.51     0  02:01        1.66
  YS02001610           JUNCTION     0.65     1.68     8.48     0  01:33        1.68
  YS02001613           JUNCTION     0.61     1.67     8.51     0  01:33        1.66
  YS02001616           JUNCTION     0.54     1.61     8.52     0  01:33        1.61
  YS02001619           JUNCTION     0.52     1.61     8.54     0  01:33        1.61
  YS02001622           JUNCTION     0.51     1.62     8.52     0  01:33        1.58
  YS02001625           JUNCTION     0.75     1.78     8.38     0  01:33        1.78
  YS02001629           JUNCTION     0.65     1.85     8.40     0  01:33        1.85
  YS02001633           JUNCTION     0.72     2.07     8.52     0  01:35        2.03
  YS02001641           JUNCTION     0.67     1.97     8.41     0  01:35        1.94
  YS02001644           JUNCTION     0.65     1.92     8.35     0  01:35        1.92
  YS02001647           JUNCTION     0.42     1.82     8.43     0  01:35        1.78
  YS02001649           JUNCTION     0.47     2.05     8.44     0  01:35        2.05
  YS02001652           JUNCTION     0.35     2.16     8.76     0  01:36        1.91
  YS02001655           JUNCTION     0.25     2.20     9.05     0  01:35        1.72
  YS02001658           JUNCTION     0.19     2.30     9.44     0  01:35        1.52
  YS02001661           JUNCTION     0.20     2.46     9.86     0  01:36        1.33
  YS02001664           JUNCTION     0.10     2.31    10.23     0  01:36        0.88
  YS02001745           JUNCTION     0.10     2.35     9.87     0  01:36        0.89
  YS02001748           JUNCTION     0.16     2.27     9.35     0  01:36        1.32
  YS02001751           JUNCTION     0.20     2.20     9.08     0  01:36        1.50
  YS02001754           JUNCTION     0.28     2.20     8.81     0  01:36        1.76
  YS02001757           JUNCTION     0.47     2.21     8.47     0  01:36        2.08
  YS02001759           JUNCTION     0.41     2.21     8.57     0  01:36        2.09
  YS02001762           JUNCTION     0.40     2.15     8.55     0  01:36        2.05
  YS02001765           JUNCTION     0.38     2.10     8.55     0  01:36        1.99
  YS02001767           JUNCTION     0.37     2.03     8.52     0  01:35        1.95
  YS02001770           JUNCTION     0.38     1.95     8.44     0  01:35        1.95
  YS02001774           JUNCTION     0.44     2.00     8.42     0  01:39        2.00
  YS02001779           JUNCTION     0.27     1.68     8.37     0  01:35        1.68
  YS02001783           JUNCTION     0.38     1.58     7.72     0  01:35        1.58
  YS02001784           JUNCTION     0.38     1.39     7.45     0  01:35        1.39
  YS02001786           JUNCTION     0.31     1.08     7.11     0  01:34        0.94
  YS02001788           JUNCTION     0.23     0.63     6.60     0  01:36        0.62
  YS02001790           JUNCTION     0.27     0.72     6.37     0  01:43        0.72
  YS02001791           JUNCTION     0.16     0.44     5.91     0  01:40        0.43
  YS02001793           JUNCTION     0.10     0.25     5.09     0  01:45        0.25
  YS02001882           JUNCTION     0.47     1.83     8.55     0  01:34        1.67
  YS02001884           JUNCTION     0.56     1.92     8.54     0  01:34        1.76
  YS02001887           JUNCTION     0.63     1.92     8.46     0  01:34        1.85
  YS02001890           JUNCTION     0.66     1.81     8.32     0  01:34        1.81
  YS02001895           JUNCTION     0.44     1.75     8.50     0  01:34        1.57
  YS02001898           JUNCTION     0.45     1.77     8.51     0  01:34        1.57
  YS02001901           JUNCTION     0.55     1.87     8.48     0  01:34        1.74
  YS02001904           JUNCTION     0.53     1.69     8.32     0  01:34        1.65
  YS02001907           JUNCTION     0.84     1.96     8.25     0  01:34        1.96
  YS02001910           JUNCTION     0.66     2.08     8.59     0  01:34        1.98
  YS02001915           JUNCTION     0.49     2.00     8.72     0  01:34        1.94
  YS02001918           JUNCTION     0.30     1.81     8.88     0  01:34        1.81
  YS02001920           JUNCTION     0.38     2.14     9.15     0  01:35        1.84
  YS02001923           JUNCTION     0.24     2.03     9.29     0  01:35        1.57
  YS02001926           JUNCTION     0.26     1.90     9.35     0  01:35        1.37
  YS02001929           JUNCTION     0.16     1.78     9.47     0  01:35        1.10
  YS02006553           JUNCTION     0.84     2.12     8.41     0  01:35        2.12
  YS02006556           JUNCTION     0.81     2.29     8.60     0  01:35        2.29
  YS02006558           JUNCTION     0.85     2.38     8.64     0  01:35        2.38
  YS02006561           JUNCTION     0.24     1.30     7.96     0  01:35        1.30
  YS02163301           JUNCTION     0.67     1.96     8.48     0  01:33        1.92
  YS02163601           JUNCTION     0.74     2.08     8.48     0  01:35        2.02
  YS02164001           JUNCTION     0.66     2.00     8.45     0  01:35        1.94
  CC-1                 OUTFALL      0.00     0.00     0.00     0  00:00        0.00
  CC-2                 OUTFALL      0.00     0.00     0.00     0  00:00        0.00
  JK-1                 OUTFALL      0.00     0.00     0.00     0  00:00        0.00
  JK-2                 OUTFALL      0.00     0.00     0.00     0  00:00        0.00
  WSC                  OUTFALL      0.19     0.30     0.97     0  03:08        0.30
  CC-storage           STORAGE      0.36     1.10     6.60     0  02:25        1.10
  JK-storage           STORAGE      0.02     2.99     3.79     0  00:00        0.68
  
  
  *******************
  Node Inflow Summary
  *******************
  
  -------------------------------------------------------------------------------------------------
                                  Maximum  Maximum                  Lateral       Total        Flow
                                  Lateral    Total  Time of Max      Inflow      Inflow     Balance
                                   Inflow   Inflow   Occurrence      Volume      Volume       Error
  Node                 Type           LPS      LPS  days hr:min    10^6 ltr    10^6 ltr     Percent
  -------------------------------------------------------------------------------------------------
  WS02003060           JUNCTION     16.53   552.58     0  03:06       0.471         5.6       0.057
  WS02003066           JUNCTION      0.00   535.53     0  03:05           0        5.13       0.036
  WS02003067           JUNCTION      0.00   535.44     0  03:05           0        5.13       0.092
  WS02003069           JUNCTION      0.32   552.35     0  03:06     0.00912         5.6       0.103
  WS02003072           JUNCTION      0.00   551.79     0  03:07           0         5.6       0.172
  WS02003073           JUNCTION      1.82   553.51     0  03:07      0.0519        5.64       0.143
  WS02004401           JUNCTION      0.00   539.99     0  03:01           0        5.24       0.217
  WS02004402           JUNCTION      0.00   540.88     0  03:04           0        5.23       0.217
  WS02004403           JUNCTION      0.00   540.23     0  03:03           0        5.22       0.212
  WS02004404           JUNCTION      0.16   551.80     0  03:01     0.00462        5.21       0.122
  WS02004405           JUNCTION      0.04   599.11     0  03:01     0.00109        5.21       0.196
  WS02004406           JUNCTION      0.00   543.43     0  03:04           0         5.2       0.429
  WS02004407           JUNCTION      0.00   537.73     0  03:03           0        5.18       0.032
  WS02004409           JUNCTION      0.00   537.35     0  03:04           0        5.17       0.077
  WS02004410           JUNCTION      0.00   536.78     0  03:04           0        5.17       0.115
  WS02004411           JUNCTION      0.00   536.21     0  03:04           0        5.16       0.137
  WS02004412           JUNCTION      0.00   535.91     0  03:04           0        5.16       0.174
  WS02004413           JUNCTION      0.00   536.15     0  03:05           0        5.15       0.309
  WS02006109           JUNCTION      1.23   546.54     0  02:56      0.0351        5.29       0.147
  WS02006110           JUNCTION      0.00   546.55     0  02:56           0        5.28       0.146
  WS02006111           JUNCTION      0.00   563.17     0  03:00           0        5.27       0.030
  WS02006112           JUNCTION      0.00   542.97     0  02:56           0        5.27       0.409
  WS02006113           JUNCTION      0.00   557.98     0  02:59           0        5.28       0.038
  WS02006115           JUNCTION      0.00   546.52     0  03:00           0        5.25       0.156
  WS02006116           JUNCTION      0.00   540.72     0  03:00           0        5.24       0.015
  WS02006228           JUNCTION      0.00   544.73     0  02:59           0        5.26       0.063
  WS02006229           JUNCTION      0.00   544.55     0  02:59           0        5.27       0.138
  WS02006230           JUNCTION     10.28   578.32     0  02:53       0.293        5.27       0.103
  WS02006231           JUNCTION      0.00   564.35     0  02:53           0        4.97      -0.093
  WS02006232           JUNCTION      0.00   561.28     0  02:53           0        4.99       0.284
  WS02006234           JUNCTION      0.00   552.51     0  02:53           0        4.97      -0.350
  WS02006235           JUNCTION      0.00   623.73     0  01:27           0        5.12       0.056
  WS02006238           JUNCTION      0.00   427.34     0  03:22           0        3.95      -0.318
  WS02006239           JUNCTION      0.00   420.79     0  03:25           0        3.81      -0.450
  WS02006240           JUNCTION      0.00   422.28     0  03:24           0        3.76      -0.297
  WS02006242           JUNCTION      0.00   425.55     0  03:24           0        3.76      -0.021
  WS02006243           JUNCTION      0.00   426.20     0  03:24           0        3.77       0.124
  WS02006245           JUNCTION      0.00   547.23     0  01:31           0         3.8       0.826
  WS02006247           JUNCTION      0.00   536.87     0  01:31           0        3.79      -0.073
  WS02006248           JUNCTION      0.00   546.08     0  01:30           0        3.81       0.157
  WS02006249           JUNCTION      0.00   553.11     0  01:30           0        4.01       0.770
  WS02006251           JUNCTION      0.08   486.92     0  01:30     0.00219        4.01       0.006
  WS02006252           JUNCTION      0.00   400.00     0  00:00           0           4      -0.175
  WS02006256           JUNCTION      0.00   300.00     0  00:00           0        1.71     -12.385
  WSF200               JUNCTION      0.00   535.65     0  03:05           0        5.13       0.016
  YS02001580           JUNCTION      0.00   162.90     0  01:33           0     0.00463      -0.085
  YS02001583           JUNCTION      0.00   267.90     0  01:33           0      0.0148     -11.108
  YS02001586           JUNCTION    870.02   870.02     0  01:42        2.24        2.25       0.075
  YS02001590           JUNCTION      0.00   318.41     0  02:14           0        1.59      -0.033
  YS02001593           JUNCTION      0.00   317.95     0  02:01           0        1.59       0.020
  YS02001596           JUNCTION      0.00   317.94     0  02:01           0        1.59       0.006
  YS02001600           JUNCTION      0.00   317.96     0  02:01           0        1.59       0.017
  YS02001601           JUNCTION   1599.51  1917.03     0  01:40        3.04        4.62       0.021
  YS02001602           JUNCTION      0.00   576.87     0  01:33           0        2.65       0.021
  YS02001605           JUNCTION      0.00   576.67     0  01:33           0        2.52       0.021
  YS02001607           JUNCTION      0.00   576.70     0  01:33           0        2.52       0.082
  YS02001610           JUNCTION      0.00   874.53     0  01:42           0        2.97       0.085
  YS02001613           JUNCTION      0.00   546.81     0  01:33           0        2.39       0.078
  YS02001616           JUNCTION      0.00   547.17     0  01:33           0        2.39       0.024
  YS02001619           JUNCTION   1546.12  1546.12     0  01:42        3.59        5.52      -0.003
  YS02001622           JUNCTION      0.00  1012.22     0  01:41           0        5.06      -0.003
  YS02001625           JUNCTION      0.00  1427.86     0  01:43           0        5.33       0.179
  YS02001629           JUNCTION      0.00   971.23     0  02:08           0        4.32       0.003
  YS02001633           JUNCTION   1198.15  1426.01     0  01:34        2.23        6.15       0.058
  YS02001641           JUNCTION      0.00  1424.53     0  01:34           0        5.77       0.050
  YS02001644           JUNCTION   1073.53  1927.95     0  01:34        1.93         7.7       0.044
  YS02001647           JUNCTION      0.00  1928.97     0  01:34           0        6.97       0.008
  YS02001649           JUNCTION      0.00  2170.00     0  01:35           0        8.75       0.006
  YS02001652           JUNCTION      0.00  1055.16     0  01:37           0        1.78      -0.106
  YS02001655           JUNCTION      0.15  1054.41     0  01:37     0.00439        1.78       0.033
  YS02001658           JUNCTION      0.00  1053.84     0  01:37           0        1.77      -0.082
  YS02001661           JUNCTION      0.00  1052.84     0  01:37           0        1.78       0.028
  YS02001664           JUNCTION   1044.66  1044.66     0  01:39        1.77        1.77      -0.031
  YS02001745           JUNCTION    682.88   818.66     0  01:36        1.06        1.07       0.088
  YS02001748           JUNCTION      0.04   955.99     0  01:35     0.00128        1.07      -0.267
  YS02001751           JUNCTION      0.01   705.85     0  01:37    0.000313        1.08       0.046
  YS02001754           JUNCTION      0.26   706.03     0  01:37     0.00741         1.1      -0.109
  YS02001757           JUNCTION      0.00  3408.96     0  01:47           0        13.2       0.044
  YS02001759           JUNCTION    943.88  1494.40     0  01:36        1.47        3.33      -0.003
  YS02001762           JUNCTION      0.00   822.12     0  01:48           0        1.86       0.009
  YS02001765           JUNCTION      0.00   821.51     0  01:48           0        1.86       0.010
  YS02001767           JUNCTION      0.54   821.46     0  01:48      0.0152        1.86      -0.001
  YS02001770           JUNCTION   1328.12  1328.12     0  01:39        2.24        2.28      -0.023
  YS02001774           JUNCTION      0.00   840.58     0  01:39           0       0.444       0.298
  YS02001779           JUNCTION      0.01   840.31     0  01:39    0.000142         0.4      -0.249
  YS02001783           JUNCTION      0.00  1171.85     0  01:37           0        4.78       0.006
  YS02001784           JUNCTION      1.06  1173.18     0  01:36      0.0302        4.81       0.012
  YS02001786           JUNCTION      0.06  1172.93     0  01:37      0.0016        4.81       0.015
  YS02001788           JUNCTION      0.07  1173.13     0  01:37     0.00202        4.81       0.006
  YS02001790           JUNCTION      0.15  1188.49     0  01:36     0.00442        4.81      -0.002
  YS02001791           JUNCTION      0.00  1287.80     0  01:40           0        4.81       0.001
  YS02001793           JUNCTION      0.00  1254.80     0  01:44           0        4.81      -0.001
  YS02001882           JUNCTION      0.00   111.28     0  01:34           0      0.0131       4.775
  YS02001884           JUNCTION      0.00   145.92     0  01:33           0      0.0488       5.362
  YS02001887           JUNCTION   1038.75  1039.65     0  01:38        1.53        1.56       0.284
  YS02001890           JUNCTION      0.00  1038.86     0  01:38           0        1.52       0.340
  YS02001895           JUNCTION      0.00   583.10     0  01:34           0         1.3       0.126
  YS02001898           JUNCTION      0.00   581.96     0  01:34           0         1.3      -0.018
  YS02001901           JUNCTION      0.00   580.80     0  01:34           0         1.3       0.257
  YS02001904           JUNCTION      0.00   581.50     0  01:34           0        1.31       0.223
  YS02001907           JUNCTION      0.00  2425.58     0  01:39           0        4.68       0.387
  YS02001910           JUNCTION      0.00  1730.62     0  01:40           0        3.33       0.221
  YS02001915           JUNCTION   1163.52  1730.45     0  01:40        2.13        3.39       0.041
  YS02001918           JUNCTION      0.00   702.00     0  01:34           0        1.29       0.021
  YS02001920           JUNCTION      2.87   710.63     0  01:34      0.0818        1.26       0.052
  YS02001923           JUNCTION      0.04   962.55     0  01:34     0.00107        1.16      -0.052
  YS02001926           JUNCTION      0.05  1191.04     0  01:35     0.00149        1.14      -0.121
  YS02001929           JUNCTION    558.92   910.95     0  01:35        1.12        1.13      -0.071
  YS02006553           JUNCTION      0.00   791.64     0  02:04           0        2.68       0.444
  YS02006556           JUNCTION      0.00   791.80     0  02:04           0        2.69       0.304
  YS02006558           JUNCTION   1364.01  1364.01     0  01:39        2.25        4.86       0.070
  YS02006561           JUNCTION      0.00  1178.89     0  01:34           0        4.78       0.001
  YS02163301           JUNCTION      0.00   971.73     0  02:08           0         4.3       0.040
  YS02163601           JUNCTION      0.11  1425.67     0  01:34     0.00313        5.77       0.089
  YS02164001           JUNCTION      0.00  1425.67     0  01:34           0        5.77       0.044
  CC-1                 OUTFALL       0.00   683.00     0  00:00           0        5.69       0.000
  CC-2                 OUTFALL       0.00   683.00     0  00:00           0        5.69       0.000
  JK-1                 OUTFALL       0.00  1000.00     0  00:00           0        1.86       0.000
  JK-2                 OUTFALL       0.00  1000.00     0  00:00           0        1.86       0.000
  WSC                  OUTFALL       0.00   553.42     0  03:08           0        5.63       0.000
  CC-storage           STORAGE       0.00  3408.44     0  01:48           0        15.4      -0.321
  JK-storage           STORAGE       0.00  1295.58     0  01:44           0        4.97      -8.057
  
  
  **********************
  Node Surcharge Summary
  **********************
  
  Surcharging occurs when water rises above the top of the highest conduit.
  ---------------------------------------------------------------------
                                               Max. Height   Min. Depth
                                   Hours       Above Crown    Below Rim
  Node                 Type      Surcharged         Meters       Meters
  ---------------------------------------------------------------------
  WS02004404           JUNCTION        0.01          0.021        2.759
  WS02006109           JUNCTION        2.09          0.221        1.599
  WS02006110           JUNCTION        0.13          0.083        1.767
  WS02006112           JUNCTION        1.72          0.086        1.594
  WS02006228           JUNCTION        2.08          0.352        1.848
  WS02006229           JUNCTION        2.11          0.420        2.030
  WS02006230           JUNCTION        0.12          0.132        1.438
  WS02006231           JUNCTION        1.37          0.902        0.628
  WS02006232           JUNCTION        2.19          1.480        0.000
  WS02006234           JUNCTION        1.85          1.240        0.000
  WS02006235           JUNCTION        2.06          1.290        0.000
  WS02006238           JUNCTION        2.15          1.430        0.000
  WS02006239           JUNCTION        2.09          1.213        0.077
  WS02006240           JUNCTION        2.09          1.390        0.000
  WS02006242           JUNCTION        2.19          0.820        0.000
  WS02006243           JUNCTION        2.10          0.770        0.000
  WS02006245           JUNCTION        2.10          0.850        0.000
  WS02006247           JUNCTION        2.12          0.760        0.000
  WS02006248           JUNCTION        2.08          0.380        0.000
  WS02006249           JUNCTION        2.10          0.390        0.000
  WS02006251           JUNCTION        1.81          0.210        0.970
  WS02006252           JUNCTION        2.78          1.100        0.000
  WS02006256           JUNCTION        6.95          2.050        0.000
  YS02001580           JUNCTION        0.82          0.450        0.000
  YS02001583           JUNCTION        0.83          0.500        0.000
  YS02001586           JUNCTION        0.94          0.510        0.000
  YS02001590           JUNCTION        1.02          0.750        0.000
  YS02001593           JUNCTION        1.02          0.743        0.097
  YS02001596           JUNCTION        1.14          0.975        0.095
  YS02001600           JUNCTION        1.35          1.190        0.000
  YS02001601           JUNCTION        1.70          1.440        0.000
  YS02001602           JUNCTION        1.62          1.270        0.000
  YS02001605           JUNCTION        1.59          1.180        0.000
  YS02001607           JUNCTION        0.93          0.661        0.019
  YS02001610           JUNCTION        0.97          0.680        0.000
  YS02001613           JUNCTION        0.92          0.668        0.032
  YS02001616           JUNCTION        0.87          0.610        0.000
  YS02001619           JUNCTION        0.85          0.610        0.000
  YS02001622           JUNCTION        0.84          0.620        0.000
  YS02001625           JUNCTION        1.08          0.780        0.000
  YS02001629           JUNCTION        0.69          0.470        0.000
  YS02001633           JUNCTION        1.08          1.047        0.013
  YS02001641           JUNCTION        0.94          0.972        0.128
  YS02001644           JUNCTION        0.87          0.920        0.000
  YS02001647           JUNCTION        0.55          0.815        0.085
  YS02001649           JUNCTION        0.61          1.050        0.000
  YS02001652           JUNCTION        0.45          1.130        0.000
  YS02001655           JUNCTION        0.33          1.200        0.000
  YS02001658           JUNCTION        0.24          1.300        0.000
  YS02001661           JUNCTION        0.10          1.390        0.000
  YS02001664           JUNCTION        0.01          1.310        0.000
  YS02001745           JUNCTION        0.01          1.350        0.000
  YS02001748           JUNCTION        0.15          1.190        0.000
  YS02001751           JUNCTION        0.26          1.200        0.000
  YS02001754           JUNCTION        0.33          1.150        0.000
  YS02001757           JUNCTION        0.59          1.210        0.000
  YS02001759           JUNCTION        0.51          1.210        0.000
  YS02001762           JUNCTION        0.49          1.150        0.000
  YS02001765           JUNCTION        0.46          1.100        0.000
  YS02001767           JUNCTION        0.45          1.030        0.000
  YS02001770           JUNCTION        0.43          0.920        0.000
  YS02001774           JUNCTION        0.50          1.003        0.047
  YS02001779           JUNCTION        0.36          0.680        0.000
  YS02001783           JUNCTION        0.70          0.782        0.818
  YS02001784           JUNCTION        0.67          0.587        0.903
  YS02001786           JUNCTION        0.56          0.276        1.154
  YS02001882           JUNCTION        0.63          0.830        0.000
  YS02001884           JUNCTION        0.64          0.859        0.011
  YS02001887           JUNCTION        0.69          0.870        0.080
  YS02001890           JUNCTION        0.70          0.760        0.000
  YS02001895           JUNCTION        0.62          0.750        0.000
  YS02001898           JUNCTION        0.61          0.740        0.000
  YS02001901           JUNCTION        0.67          0.870        0.000
  YS02001904           JUNCTION        0.66          0.686        0.164
  YS02001907           JUNCTION        0.91          0.950        0.000
  YS02001910           JUNCTION        0.73          1.079        0.021
  YS02001915           JUNCTION        0.63          1.000        0.000
  YS02001918           JUNCTION        0.54          0.810        0.000
  YS02001920           JUNCTION        0.56          1.140        0.000
  YS02001923           JUNCTION        0.20          0.820        0.000
  YS02001926           JUNCTION        0.23          0.900        0.000
  YS02001929           JUNCTION        0.03          0.780        0.000
  YS02006553           JUNCTION        0.95          1.121        0.069
  YS02006556           JUNCTION        0.82          1.251        0.099
  YS02006558           JUNCTION        0.81          1.278        0.122
  YS02006561           JUNCTION        0.50          0.498        0.652
  YS02163301           JUNCTION        1.06          0.961        0.069
  YS02163601           JUNCTION        1.12          1.080        0.000
  YS02164001           JUNCTION        0.96          0.995        0.105
  
  
  *********************
  Node Flooding Summary
  *********************
  
  Flooding refers to all water that overflows a node, whether it ponds or not.
  --------------------------------------------------------------------------
                                                             Total   Maximum
                                 Maximum   Time of Max       Flood    Ponded
                        Hours       Rate    Occurrence      Volume     Depth
  Node                 Flooded       LPS   days hr:min    10^6 ltr    Meters
  --------------------------------------------------------------------------
  WS02006232              0.01      9.74      0  02:49       0.000     0.000
  WS02006234              0.01     39.67      0  02:29       0.000     0.000
  WS02006235              0.01     18.14      0  02:49       0.000     0.000
  WS02006238              0.01     10.52      0  02:49       0.000     0.000
  WS02006240              0.01      3.23      0  02:14       0.000     0.000
  WS02006242              0.02     22.28      0  03:27       0.001     0.000
  WS02006243              0.01      3.89      0  03:13       0.000     0.000
  WS02006245              0.01      3.18      0  02:14       0.000     0.000
  WS02006247              0.01    257.33      0  01:31       0.000     0.000
  WS02006248              0.49    305.42      0  01:30       0.013     0.000
  WS02006249              1.65    293.61      0  01:30       0.166     0.000
  WS02006252              0.01    276.39      0  01:30       0.000     0.000
  WS02006256              1.56    293.19      0  00:00       0.758     0.000
  YS02001580              0.01     95.11      0  01:33       0.001     0.000
  YS02001583              0.01    205.43      0  01:33       0.000     0.000
  YS02001586              0.68    552.47      0  01:42       0.649     0.000
  YS02001590              0.01      5.50      0  01:32       0.000     0.000
  YS02001600              0.01      4.64      0  01:32       0.000     0.000
  YS02001601              0.83   1519.19      0  01:40       1.974     0.000
  YS02001602              0.61     61.99      0  01:56       0.128     0.000
  YS02001605              0.01      0.14      0  02:01       0.000     0.000
  YS02001610              0.56    874.41      0  01:42       1.036     0.000
  YS02001616              0.01     38.05      0  01:33       0.000     0.000
  YS02001619              0.01     69.58      0  01:33       0.000     0.000
  YS02001622              0.01    249.51      0  01:33       0.001     0.000
  YS02001625              0.47   1427.84      0  01:43       1.382     0.000
  YS02001629              0.18    423.41      0  01:38       0.129     0.000
  YS02001644              0.23   1529.37      0  01:39       0.717     0.000
  YS02001649              0.02    409.34      0  01:36       0.014     0.000
  YS02001652              0.01     46.62      0  01:36       0.000     0.000
  YS02001655              0.01    377.74      0  01:35       0.001     0.000
  YS02001658              0.01    343.21      0  01:35       0.001     0.000
  YS02001661              0.01     65.03      0  01:36       0.000     0.000
  YS02001664              0.01    202.80      0  01:36       0.000     0.000
  YS02001745              0.01    382.59      0  01:36       0.001     0.000
  YS02001748              0.01    415.31      0  01:36       0.002     0.000
  YS02001751              0.01    259.74      0  01:36       0.001     0.000
  YS02001754              0.01     84.99      0  01:36       0.000     0.000
  YS02001757              0.01    163.18      0  01:36       0.001     0.000
  YS02001759              0.01      6.78      0  01:36       0.000     0.000
  YS02001762              0.01     18.09      0  01:36       0.000     0.000
  YS02001765              0.01     15.65      0  01:36       0.000     0.000
  YS02001767              0.01    117.69      0  01:35       0.000     0.000
  YS02001770              0.06    294.52      0  01:35       0.015     0.000
  YS02001779              0.21    840.31      0  01:39       0.382     0.000
  YS02001882              0.01     19.58      0  01:34       0.000     0.000
  YS02001890              0.22    518.36      0  01:38       0.216     0.000
  YS02001895              0.01     91.34      0  01:34       0.000     0.000
  YS02001898              0.01    227.90      0  01:34       0.000     0.000
  YS02001901              0.01     79.85      0  01:34       0.000     0.000
  YS02001907              0.48   2425.41      0  01:39       2.038     0.000
  YS02001915              0.01    223.57      0  01:34       0.000     0.000
  YS02001918              0.01    222.80      0  01:35       0.004     0.000
  YS02001920              0.01     58.11      0  01:35       0.000     0.000
  YS02001923              0.01    104.46      0  01:35       0.000     0.000
  YS02001926              0.01    671.66      0  01:35       0.006     0.000
  YS02001929              0.01    716.27      0  01:35       0.002     0.000
  YS02163601              0.01      3.89      0  01:35       0.000     0.000
  
  
  **********************
  Storage Volume Summary
  **********************
  
  ------------------------------------------------------------------------------------------------
                         Average    Avg   Evap  Exfil     Maximum    Max    Time of Max    Maximum
                          Volume   Pcnt   Pcnt   Pcnt      Volume   Pcnt     Occurrence    Outflow
  Storage Unit           1000 m³   Full   Loss   Loss     1000 m³   Full    days hr:min        LPS
  ------------------------------------------------------------------------------------------------
  CC-storage               0.992   15.5    0.0    0.0       3.069   47.9       0  02:25    1783.53
  JK-storage               0.001    0.4    0.0    0.0       0.150   51.6       0  00:00    2300.00
  
  
  ***********************
  Outfall Loading Summary
  ***********************
  
  -----------------------------------------------------------
                         Flow       Avg       Max       Total
                         Freq      Flow      Flow      Volume
  Outfall Node           Pcnt       LPS       LPS    10^6 ltr
  -----------------------------------------------------------
  CC-1                  51.87    683.00    683.00       5.687
  CC-2                  51.87    683.00    683.00       5.687
  JK-1                  13.45    998.22   1000.00       1.856
  JK-2                  13.45    998.22   1000.00       1.856
  WSC                   99.95    279.53    553.42       5.630
  -----------------------------------------------------------
  System                46.12   3641.98   3898.18      20.716
  
  
  ********************
  Link Flow Summary
  ********************
  
  -----------------------------------------------------------------------------
                                 Maximum  Time of Max   Maximum    Max/    Max/
                                  |Flow|   Occurrence   |Veloc|    Full    Full
  Link                 Type          LPS  days hr:min     m/sec    Flow   Depth
  -----------------------------------------------------------------------------
  1                    CONDUIT    553.42     0  03:08      2.82    0.19    0.30
  WS02003060WS02003069 CONDUIT    552.03     0  03:06      1.64    0.22    0.34
  WS02003066WSF200     CONDUIT    535.65     0  03:05      2.85    0.09    0.22
  WS02003067WS02003066 CONDUIT    535.53     0  03:05      1.21    0.17    0.42
  WS02003069WS02003072 CONDUIT    551.79     0  03:07      1.37    0.27    0.39
  WS02003072WS02003073 CONDUIT    551.69     0  03:07      1.43    1.19    0.37
  WS02004401WS02004402 CONDUIT    540.88     0  03:04      1.22    0.65    0.89
  WS02004402WS02004403 CONDUIT    540.23     0  03:03      1.24    0.78    0.91
  WS02004403WS02004404 CONDUIT    551.64     0  03:01      1.24    0.40    0.96
  WS02004404WS02004405 CONDUIT    599.08     0  03:01      1.45    5.87    0.98
  WS02004405WS02004406 CONDUIT    543.43     0  03:04      1.46    1.07    0.96
  WS02004406WS02004407 CONDUIT    537.73     0  03:03      1.04    0.24    0.63
  WS02004407WS02004409 CONDUIT    537.35     0  03:04      1.59    0.19    0.48
  WS02004409WS02004410 CONDUIT    536.78     0  03:04      1.06    0.69    0.67
  WS02004410WS02004411 CONDUIT    536.21     0  03:04      1.12    0.73    0.69
  WS02004411WS02004412 CONDUIT    535.91     0  03:04      1.22    0.76    0.69
  WS02004412WS02004413 CONDUIT    536.15     0  03:05      1.22    0.36    0.78
  WS02004413WS02003067 CONDUIT    535.44     0  03:05      1.11    0.23    0.59
  WS02006109WS02006110 CONDUIT    546.55     0  02:56      1.09    1.05    1.00
  WS02006110WS02006113 CONDUIT    557.98     0  02:59      1.33    0.51    0.79
  WS02006111WS02006112 CONDUIT    542.97     0  02:56      1.95    0.26    0.67
  WS02006112WS02006115 CONDUIT    546.52     0  03:00      0.84    0.32    0.88
  WS02006113WS02006111 CONDUIT    563.17     0  03:00      2.47    0.68    0.46
  WS02006115WS02006116 CONDUIT    540.72     0  03:00      1.29    0.69    0.78
  WS02006116WS02004401 CONDUIT    539.99     0  03:01      1.21    0.74    0.86
  WS02006228WS02006109 CONDUIT    545.31     0  02:56      1.08    2.38    1.00
  WS02006229WS02006228 CONDUIT    544.73     0  02:59      1.12    1.80    1.00
  WS02006230WS02006229 CONDUIT    544.55     0  02:59      1.41   12.12    1.00
  WS02006231WS02006230 CONDUIT    568.04     0  02:53      1.57    8.62    1.00
  WS02006232WS02006231 CONDUIT    564.35     0  02:53      1.47    1.18    1.00
  WS02006234WS02006232 CONDUIT    561.28     0  02:53      1.46    1.14    1.00
  WS02006235WS02006234 CONDUIT    552.51     0  02:53      1.44    5.83    1.00
  WS02006238WS02006235 CONDUIT    445.13     0  03:24      1.45    0.99    1.00
  WS02006239WS02006238 CONDUIT    427.34     0  03:22      1.11    1.37    1.00
  WS02006240WS02006239 CONDUIT    420.79     0  03:25      1.24    1.32    1.00
  WS02006242WS02006240 CONDUIT    422.28     0  03:24      1.16    1.68    1.00
  WS02006243WS02006242 CONDUIT    425.55     0  03:24      1.42    0.91    1.00
  WS02006245WS02006243 CONDUIT    426.20     0  03:24      1.45    1.26    1.00
  WS02006247WS02006245 CONDUIT    547.23     0  01:31      1.44    4.34    1.00
  WS02006248WS02006247 CONDUIT    536.87     0  01:31      1.44    1.17    1.00
  WS02006249WS02006248 CONDUIT    546.08     0  01:30      1.45    2.99    1.00
  WS02006251WS02006249 CONDUIT    553.11     0  01:30      1.99    1.59    1.00
  WS02006252WS02006251 CONDUIT    403.96     0  03:56     27.03    1.48    1.00
  WS02006256WS02006235 CONDUIT    288.91     0  00:00      4.23    3.06    1.00
  WSF200WS02003060     CONDUIT    536.05     0  03:06      2.06    0.12    0.28
  YS02001580YS02001583 CONDUIT    162.90     0  01:33      0.89    0.63    1.00
  YS02001583YS02001586 CONDUIT    200.25     0  01:33      0.91    0.30    1.00
  YS02001586YS02001590 CONDUIT    318.41     0  02:14      1.28    0.56    1.00
  YS02001590YS02001593 CONDUIT    317.95     0  02:01      1.12    2.00    1.00
  YS02001593YS02001596 CONDUIT    317.94     0  02:01      1.75    0.50    1.00
  YS02001596YS02001600 CONDUIT    317.96     0  02:01      1.23    0.62    1.00
  YS02001600YS02001601 CONDUIT    318.08     0  01:58      1.12    0.55    1.00
  YS02001601YS02001602 CONDUIT    576.87     0  01:33      2.04    2.08    1.00
  YS02001602YS02001605 CONDUIT    576.67     0  01:33      2.04   12.20    1.00
  YS02001605YS02001607 CONDUIT    576.70     0  01:33      2.04    3.16    1.00
  YS02001607YS02001610 CONDUIT    544.75     0  01:33      0.71    0.52    1.00
  YS02001610YS02001613 CONDUIT    546.81     0  01:33      0.70    0.63    1.00
  YS02001613YS02001616 CONDUIT    547.17     0  01:33      0.70    0.47    1.00
  YS02001616YS02001619 CONDUIT    538.43     0  01:42      0.69    0.93    1.00
  YS02001619YS02001622 CONDUIT   1012.22     0  01:41      1.29    1.49    1.00
  YS02001622YS02001625 CONDUIT   1012.12     0  01:41      1.29    0.54    1.00
  YS02001625YS02001629 CONDUIT    971.23     0  02:08      1.24    0.46    1.00
  YS02001629YS02163301 CONDUIT    971.73     0  02:08      1.24    1.20    1.00
  YS02001633YS02163601 CONDUIT   1425.56     0  01:34      1.82    1.50    1.00
  YS02001641YS02001644 CONDUIT   1424.34     0  01:34      1.81    4.60    1.00
  YS02001644YS02001647 CONDUIT   1928.97     0  01:34      2.46    1.13    1.00
  YS02001647YS02001649 CONDUIT   1934.42     0  01:34      2.46    1.02    1.00
  YS02001649YS02001757 CONDUIT   2170.24     0  01:35      2.76    1.32    1.00
  YS02001652YS02001649 CONDUIT   1055.89     0  01:37      1.34    0.52    1.00
  YS02001655YS02001652 CONDUIT   1055.16     0  01:37      1.53    0.51    1.00
  YS02001658YS02001655 CONDUIT   1054.26     0  01:37      2.04    0.45    1.00
  YS02001661YS02001658 CONDUIT   1053.84     0  01:37      2.46    0.41    1.00
  YS02001664YS02001661 CONDUIT   1052.84     0  01:37      2.56    0.33    1.00
  YS02001745YS02001748 CONDUIT    705.22     0  01:37      2.42    0.27    1.00
  YS02001748YS02001751 CONDUIT    705.84     0  01:37      1.89    0.36    1.00
  YS02001751YS02001754 CONDUIT    705.77     0  01:37      1.56    0.34    1.00
  YS02001754YS02001757 CONDUIT    706.49     0  01:37      0.90    0.28    1.00
  YS02001757CaochengTiaoxuchi CONDUIT   3408.44     0  01:48      7.57    1.48    1.00
  YS02001759YS02001757 CONDUIT   1490.14     0  01:36      1.90    1.06    1.00
  YS02001762YS02001759 CONDUIT    822.98     0  01:48      1.05    0.95    1.00
  YS02001765YS02001762 CONDUIT    822.12     0  01:48      1.05    0.77    1.00
  YS02001767YS02001765 CONDUIT    821.51     0  01:48      1.05    1.03    1.00
  YS02001770YS02001767 CONDUIT    820.92     0  01:48      1.05    3.25    1.00
  YS02001774YS02001770 CONDUIT    840.58     0  01:39      1.07    0.54    1.00
  YS02001779YS02001774 CONDUIT    840.30     0  01:39      1.07    0.42    1.00
  YS02001783YS02001784 CONDUIT   1172.12     0  01:36      2.33    1.62    1.00
  YS02001784YS02001785 CONDUIT   1172.88     0  01:37      2.33    2.73    1.00
  YS02001786YS02001788 CONDUIT   1173.06     0  01:37      2.50    2.26    0.89
  YS02001788YS02001790 CONDUIT   1188.34     0  01:36      2.76    0.88    0.84
  YS02001790YS02001791 CONDUIT   1287.80     0  01:40      3.42    1.40    0.70
  YS02001791YS02001793 CONDUIT   1254.80     0  01:44      6.38    0.54    0.43
  YS02001793JiankangQianchi CONDUIT   1295.58     0  01:44     24.26    0.10    0.50
  YS02001882YS02001884 CONDUIT    111.28     0  01:34      0.17    0.13    1.00
  YS02001884YS02001887 CONDUIT    145.92     0  01:33      0.19    0.19    1.00
  YS02001887YS02001890 CONDUIT   1038.86     0  01:38      1.32    1.78    1.00
  YS02001890YS02001895 CONDUIT    583.10     0  01:34      0.74    0.27    1.00
  YS02001895YS02001898 CONDUIT    581.96     0  01:34      0.74    1.01    1.00
  YS02001898YS02001901 CONDUIT    580.80     0  01:34      0.74    0.37    1.00
  YS02001901YS02001904 CONDUIT    581.50     0  01:34      0.74    0.90    1.00
  YS02001904YS02001907 CONDUIT    581.62     0  01:34      0.74    0.20    1.00
  YS02001907YS02006553 CONDUIT    791.64     0  02:04      0.88    0.93    1.00
  YS02001910YS02001907 CONDUIT   1730.61     0  01:40      2.20    0.98    1.00
  YS02001915YS02001910 CONDUIT   1730.62     0  01:40      2.20    0.86    1.00
  YS02001918YS02001915 CONDUIT    702.00     0  01:34      0.90    0.39    1.00
  YS02001920YS02001918 CONDUIT    707.76     0  01:34      0.90    0.68    1.00
  YS02001923YS02001920 CONDUIT    731.45     0  01:34      1.00    0.33    1.00
  YS02001926YS02001923 CONDUIT    953.48     0  01:35      1.40    1.36    1.00
  YS02001929YS02001926 CONDUIT    610.61     0  01:35      1.23    0.29    1.00
  YS02006553YS02006556 CONDUIT    791.80     0  02:04      1.01    0.68    1.00
  YS02006556YS02006558 CONDUIT    792.31     0  02:04      1.01    0.63    1.00
  YS02006558YS02006561 CONDUIT   1178.89     0  01:34      4.17    2.61    1.00
  YS02006561YS02001783 CONDUIT   1171.85     0  01:37      2.33    0.61    1.00
  YS02163301YS02001633 CONDUIT    972.31     0  02:08      1.24    0.91    1.00
  YS02163601YS02164001 CONDUIT   1425.67     0  01:34      1.82    1.26    1.00
  YS02164001YS02001641 CONDUIT   1424.53     0  01:34      1.81    1.95    1.00
  CC-R1                PUMP       683.00     0  00:00              1.00
  CC-R2                PUMP       683.00     0  00:00              1.00
  CC-S1                PUMP       200.00     0  00:00              1.00
  CC-S2                PUMP       200.00     0  00:00              1.00
  JK-R1                PUMP      1000.00     0  00:00              1.00
  JK-R2                PUMP      1000.00     0  00:00              1.00
  JK-S                 PUMP       300.00     0  00:00              1.00
  
  
  ***************************
  Flow Classification Summary
  ***************************
  
  -------------------------------------------------------------------------------------
                      Adjusted    ---------- Fraction of Time in Flow Class ---------- 
                       /Actual         Up    Down  Sub   Sup   Up    Down  Norm  Inlet 
  Conduit               Length    Dry  Dry   Dry   Crit  Crit  Crit  Crit  Ltd   Ctrl  
  -------------------------------------------------------------------------------------
  1                       1.00   0.00  0.00  0.00  0.00  1.00  0.00  0.00  0.35  0.00
  WS02003060WS02003069    1.00   0.00  0.00  0.00  0.98  0.02  0.00  0.00  0.71  0.00
  WS02003066WSF200        1.00   0.05  0.00  0.00  0.00  0.95  0.00  0.00  0.86  0.00
  WS02003067WS02003066    1.00   0.05  0.00  0.00  0.95  0.00  0.00  0.00  0.00  0.00
  WS02003069WS02003072    1.00   0.00  0.00  0.00  0.99  0.01  0.00  0.00  0.73  0.00
  WS02003072WS02003073    1.00   0.00  0.00  0.00  0.00  0.00  0.00  1.00  0.00  0.00
  WS02004401WS02004402    1.00   0.02  0.00  0.00  0.98  0.00  0.00  0.00  0.00  0.00
  WS02004402WS02004403    1.00   0.02  0.00  0.00  0.98  0.00  0.00  0.00  0.00  0.00
  WS02004403WS02004404    1.00   0.00  0.03  0.00  0.97  0.00  0.00  0.00  0.00  0.00
  WS02004404WS02004405    1.00   0.00  0.00  0.00  1.00  0.00  0.00  0.00  0.01  0.00
  WS02004405WS02004406    1.00   0.00  0.00  0.00  1.00  0.00  0.00  0.00  0.00  0.00
  WS02004406WS02004407    1.00   0.00  0.03  0.00  0.97  0.00  0.00  0.00  0.00  0.00
  WS02004407WS02004409    1.00   0.03  0.00  0.00  0.95  0.01  0.00  0.00  0.95  0.00
  WS02004409WS02004410    1.00   0.03  0.00  0.00  0.96  0.00  0.00  0.00  0.00  0.00
  WS02004410WS02004411    1.00   0.04  0.00  0.00  0.96  0.00  0.00  0.00  0.00  0.00
  WS02004411WS02004412    1.00   0.04  0.00  0.00  0.96  0.00  0.00  0.00  0.00  0.00
  WS02004412WS02004413    1.00   0.04  0.00  0.00  0.96  0.00  0.00  0.00  0.00  0.00
  WS02004413WS02003067    1.00   0.04  0.01  0.00  0.00  0.00  0.95  0.00  0.00  0.00
  WS02006109WS02006110    1.00   0.00  0.01  0.00  0.98  0.00  0.01  0.00  0.00  0.00
  WS02006110WS02006113    1.00   0.01  0.01  0.00  0.98  0.00  0.00  0.00  0.00  0.00
  WS02006111WS02006112    1.00   0.02  0.00  0.00  0.98  0.00  0.00  0.00  0.98  0.00
  WS02006112WS02006115    1.00   0.02  0.00  0.00  0.97  0.00  0.00  0.00  0.00  0.00
  WS02006113WS02006111    1.00   0.02  0.00  0.00  0.00  0.98  0.00  0.00  0.14  0.00
  WS02006115WS02006116    1.00   0.02  0.00  0.00  0.97  0.00  0.00  0.01  0.00  0.00
  WS02006116WS02004401    1.00   0.02  0.00  0.00  0.98  0.00  0.00  0.00  0.00  0.00
  WS02006228WS02006109    1.00   0.00  0.00  0.00  1.00  0.00  0.00  0.00  0.01  0.00
  WS02006229WS02006228    1.00   0.00  0.00  0.00  0.99  0.00  0.00  0.01  0.00  0.00
  WS02006230WS02006229    1.00   0.00  0.00  0.00  0.99  0.00  0.00  0.01  0.02  0.00
  WS02006231WS02006230    1.00   0.00  0.00  0.00  0.29  0.00  0.71  0.00  0.00  0.00
  WS02006232WS02006231    1.00   0.00  0.00  0.00  0.99  0.00  0.01  0.00  0.00  0.00
  WS02006234WS02006232    1.00   0.00  0.00  0.00  1.00  0.00  0.00  0.00  0.01  0.00
  WS02006235WS02006234    1.00   0.00  0.00  0.00  0.95  0.00  0.05  0.00  0.00  0.00
  WS02006238WS02006235    1.00   0.00  0.00  0.00  1.00  0.00  0.00  0.00  0.01  0.00
  WS02006239WS02006238    1.00   0.00  0.00  0.00  1.00  0.00  0.00  0.00  0.06  0.00
  WS02006240WS02006239    1.00   0.00  0.00  0.00  0.92  0.00  0.00  0.08  0.21  0.00
  WS02006242WS02006240    1.00   0.00  0.00  0.00  0.90  0.00  0.09  0.00  0.00  0.00
  WS02006243WS02006242    1.00   0.00  0.00  0.00  0.98  0.00  0.00  0.02  0.55  0.00
  WS02006245WS02006243    1.00   0.00  0.00  0.00  0.74  0.00  0.00  0.26  0.01  0.00
  WS02006247WS02006245    1.00   0.00  0.00  0.00  0.97  0.00  0.00  0.02  0.00  0.00
  WS02006248WS02006247    1.00   0.00  0.00  0.00  0.98  0.00  0.00  0.02  0.35  0.00
  WS02006249WS02006248    1.00   0.00  0.00  0.00  0.47  0.00  0.53  0.00  0.00  0.00
  WS02006251WS02006249    1.00   0.00  0.00  0.00  0.99  0.01  0.00  0.00  0.55  0.00
  WS02006252WS02006251    1.00   0.01  0.53  0.00  0.23  0.00  0.23  0.00  0.00  0.00
  WS02006256WS02006235    1.00   0.00  0.00  0.00  0.96  0.04  0.00  0.00  0.01  0.00
  WSF200WS02003060        1.00   0.00  0.05  0.00  0.24  0.71  0.00  0.00  0.64  0.00
  YS02001580YS02001583    1.00   0.19  0.58  0.00  0.22  0.00  0.00  0.00  0.68  0.00
  YS02001583YS02001586    1.00   0.41  0.31  0.00  0.28  0.00  0.00  0.00  0.68  0.00
  YS02001586YS02001590    1.00   0.13  0.00  0.00  0.44  0.04  0.00  0.39  0.34  0.00
  YS02001590YS02001593    1.00   0.13  0.01  0.00  0.14  0.00  0.72  0.00  0.00  0.00
  YS02001593YS02001596    1.00   0.13  0.00  0.00  0.17  0.01  0.00  0.68  0.03  0.00
  YS02001596YS02001600    1.00   0.14  0.00  0.00  0.23  0.01  0.00  0.63  0.03  0.00
  YS02001600YS02001601    1.00   0.13  0.01  0.00  0.86  0.00  0.00  0.00  0.58  0.00
  YS02001601YS02001602    1.00   0.13  0.01  0.00  0.87  0.00  0.00  0.00  0.00  0.00
  YS02001602YS02001605    1.00   0.13  0.00  0.00  0.86  0.00  0.00  0.00  0.00  0.00
  YS02001605YS02001607    1.00   0.14  0.00  0.00  0.86  0.00  0.00  0.00  0.00  0.00
  YS02001607YS02001610    1.00   0.13  0.01  0.00  0.86  0.00  0.00  0.00  0.01  0.00
  YS02001610YS02001613    1.00   0.13  0.00  0.00  0.87  0.00  0.00  0.00  0.00  0.00
  YS02001613YS02001616    1.00   0.13  0.00  0.00  0.87  0.00  0.00  0.00  0.00  0.00
  YS02001616YS02001619    1.00   0.13  0.00  0.00  0.87  0.00  0.00  0.00  0.00  0.00
  YS02001619YS02001622    1.00   0.13  0.00  0.00  0.87  0.00  0.00  0.00  0.28  0.00
  YS02001622YS02001625    1.00   0.13  0.00  0.00  0.87  0.00  0.00  0.00  0.03  0.00
  YS02001625YS02001629    1.00   0.13  0.04  0.00  0.20  0.00  0.63  0.00  0.00  0.00
  YS02001629YS02163301    1.00   0.15  0.01  0.00  0.84  0.00  0.00  0.00  0.00  0.00
  YS02001633YS02163601    1.00   0.00  0.01  0.00  0.99  0.00  0.00  0.00  0.15  0.00
  YS02001641YS02001644    1.00   0.00  0.01  0.00  0.99  0.00  0.00  0.00  0.00  0.00
  YS02001644YS02001647    1.00   0.00  0.16  0.00  0.84  0.00  0.00  0.00  0.00  0.00
  YS02001647YS02001649    1.00   0.00  0.16  0.00  0.50  0.34  0.00  0.00  0.55  0.00
  YS02001649YS02001757    1.00   0.00  0.00  0.00  0.83  0.17  0.00  0.00  0.76  0.00
  YS02001652YS02001649    1.00   0.00  0.00  0.00  0.97  0.03  0.00  0.00  0.72  0.00
  YS02001655YS02001652    1.00   0.00  0.00  0.00  0.22  0.01  0.00  0.77  0.10  0.00
  YS02001658YS02001655    1.00   0.00  0.14  0.00  0.63  0.24  0.00  0.00  0.73  0.00
  YS02001661YS02001658    1.00   0.14  0.00  0.00  0.46  0.40  0.00  0.00  0.75  0.00
  YS02001664YS02001661    1.00   0.13  0.00  0.00  0.70  0.17  0.00  0.00  0.84  0.00
  YS02001745YS02001748    1.00   0.00  0.00  0.00  0.05  0.01  0.00  0.93  0.03  0.00
  YS02001748YS02001751    1.00   0.00  0.00  0.00  0.78  0.22  0.00  0.00  0.85  0.00
  YS02001751YS02001754    1.00   0.00  0.00  0.00  0.14  0.01  0.00  0.85  0.05  0.00
  YS02001754YS02001757    1.00   0.00  0.00  0.00  1.00  0.00  0.00  0.00  0.82  0.00
  YS02001757CaochengTiaoxuchi    1.00   0.00  0.00  0.00  0.19  0.81  0.00  0.00  0.13  0.00
  YS02001759YS02001757    1.00   0.00  0.00  0.00  1.00  0.00  0.00  0.00  0.62  0.00
  YS02001762YS02001759    1.00   0.00  0.00  0.00  1.00  0.00  0.00  0.00  0.04  0.00
  YS02001765YS02001762    1.00   0.00  0.00  0.00  1.00  0.00  0.00  0.00  0.71  0.00
  YS02001767YS02001765    1.00   0.00  0.00  0.00  1.00  0.00  0.00  0.00  0.00  0.00
  YS02001770YS02001767    1.00   0.00  0.00  0.00  1.00  0.00  0.00  0.00  0.00  0.00
  YS02001774YS02001770    1.00   0.00  0.13  0.00  0.71  0.00  0.15  0.00  0.02  0.00
  YS02001779YS02001774    1.00   0.00  0.00  0.00  1.00  0.00  0.00  0.00  0.76  0.00
  YS02001783YS02001784    1.00   0.00  0.17  0.00  0.83  0.00  0.00  0.00  0.55  0.00
  YS02001784YS02001785    1.00   0.00  0.00  0.00  1.00  0.00  0.00  0.00  0.16  0.00
  YS02001786YS02001788    1.00   0.00  0.00  0.00  0.79  0.21  0.00  0.00  0.00  0.00
  YS02001788YS02001790    1.00   0.00  0.00  0.00  0.21  0.79  0.00  0.00  0.78  0.00
  YS02001790YS02001791    1.00   0.00  0.00  0.00  0.01  0.99  0.00  0.00  0.16  0.00
  YS02001791YS02001793    1.00   0.00  0.00  0.00  0.00  1.00  0.00  0.00  0.01  0.00
  YS02001793JiankangQianchi    1.00   0.00  0.00  0.00  0.00  1.00  0.00  0.00  0.20  0.00
  YS02001882YS02001884    1.00   0.15  0.01  0.00  0.85  0.00  0.00  0.00  0.00  0.00
  YS02001884YS02001887    1.00   0.06  0.05  0.00  0.89  0.00  0.00  0.00  0.00  0.00
  YS02001887YS02001890    1.00   0.00  0.00  0.00  0.97  0.00  0.03  0.00  0.00  0.00
  YS02001890YS02001895    1.00   0.00  0.15  0.00  0.84  0.00  0.00  0.00  0.00  0.00
  YS02001895YS02001898    1.00   0.16  0.00  0.00  0.83  0.00  0.01  0.00  0.00  0.00
  YS02001898YS02001901    1.00   0.16  0.00  0.00  0.84  0.00  0.00  0.00  0.01  0.00
  YS02001901YS02001904    1.00   0.16  0.00  0.00  0.84  0.00  0.00  0.00  0.00  0.00
  YS02001904YS02001907    1.00   0.00  0.16  0.00  0.84  0.00  0.00  0.00  0.00  0.00
  YS02001907YS02006553    1.00   0.00  0.02  0.00  0.98  0.00  0.00  0.00  0.00  0.00
  YS02001910YS02001907    1.00   0.00  0.00  0.00  0.97  0.00  0.00  0.03  0.12  0.00
  YS02001915YS02001910    1.00   0.00  0.00  0.00  0.97  0.03  0.00  0.00  0.13  0.00
  YS02001918YS02001915    1.00   0.00  0.01  0.00  0.98  0.02  0.00  0.00  0.72  0.00
  YS02001920YS02001918    1.00   0.00  0.01  0.00  0.99  0.00  0.00  0.00  0.00  0.00
  YS02001923YS02001920    1.00   0.00  0.00  0.00  1.00  0.00  0.00  0.00  0.90  0.00
  YS02001926YS02001923    1.00   0.00  0.07  0.00  0.08  0.00  0.84  0.00  0.00  0.00
  YS02001929YS02001926    1.00   0.00  0.13  0.00  0.87  0.00  0.00  0.00  0.80  0.00
  YS02006553YS02006556    1.00   0.01  0.00  0.00  0.99  0.00  0.00  0.00  0.03  0.00
  YS02006556YS02006558    1.00   0.00  0.00  0.00  1.00  0.00  0.00  0.00  0.00  0.00
  YS02006558YS02006561    1.00   0.17  0.00  0.00  0.08  0.76  0.00  0.00  0.18  0.00
  YS02006561YS02001783    1.00   0.17  0.00  0.00  0.11  0.72  0.00  0.00  0.66  0.00
  YS02163301YS02001633    1.00   0.00  0.15  0.00  0.85  0.00  0.00  0.00  0.00  0.00
  YS02163601YS02164001    1.00   0.00  0.08  0.00  0.92  0.00  0.00  0.00  0.00  0.00
  YS02164001YS02001641    1.00   0.01  0.08  0.00  0.92  0.00  0.00  0.00  0.05  0.00
  
  
  *************************
  Conduit Surcharge Summary
  *************************
  
  ----------------------------------------------------------------------------
                                                           Hours        Hours 
                         --------- Hours Full --------   Above Full   Capacity
  Conduit                Both Ends  Upstream  Dnstream   Normal Flow   Limited
  ----------------------------------------------------------------------------
  WS02003072WS02003073        0.01      0.01      0.01      1.83         0.01
  WS02004403WS02004404        0.01      0.01      0.01      0.01         0.01
  WS02004404WS02004405        0.01      0.01      0.01      3.28         0.01
  WS02004405WS02004406        0.01      0.01      0.01      1.04         0.01
  WS02006109WS02006110        0.13      0.13      2.17      0.20         0.01
  WS02006110WS02006113        0.01      0.01      2.15      0.01         0.01
  WS02006111WS02006112        0.01      0.01      2.29      0.01         0.01
  WS02006112WS02006115        0.01      0.01      1.72      0.01         0.01
  WS02006228WS02006109        2.09      2.17      2.09      2.59         2.09
  WS02006229WS02006228        2.08      2.11      2.08      2.39         2.07
  WS02006230WS02006229        2.24      2.32      2.24      4.34         2.24
  WS02006231WS02006230        0.12      0.12      1.66      3.60         0.01
  WS02006232WS02006231        1.34      1.34      2.19      1.54         0.01
  WS02006234WS02006232        2.04      2.04      2.19      0.97         0.92
  WS02006235WS02006234        1.78      1.82      2.05      3.26         0.26
  WS02006238WS02006235        2.11      2.11      2.21      0.01         0.08
  WS02006239WS02006238        2.13      2.18      2.14      2.28         1.36
  WS02006240WS02006239        2.08      2.11      2.09      2.27         1.37
  WS02006242WS02006240        2.09      2.09      2.25      2.48         0.02
  WS02006243WS02006242        2.12      2.12      2.19      0.01         0.39
  WS02006245WS02006243        2.09      2.11      2.10      2.28         1.28
  WS02006247WS02006245        2.10      2.13      2.10      2.79         1.82
  WS02006248WS02006247        2.10      2.10      2.12      0.01         0.69
  WS02006249WS02006248        2.08      2.08      2.10      2.74         0.01
  WS02006251WS02006249        2.10      2.12      2.10      2.67         1.95
  WS02006252WS02006251        2.78      2.78      2.78      2.78         0.01
  WS02006256WS02006235        2.46      3.32      5.87      1.88         0.07
  YS02001580YS02001583        0.82      0.82      0.84      0.01         0.01
  YS02001583YS02001586        0.82      0.82      0.94      0.01         0.01
  YS02001586YS02001590        0.94      0.94      1.02      0.01         0.01
  YS02001590YS02001593        1.02      1.02      1.05      1.15         0.01
  YS02001593YS02001596        1.03      1.03      1.14      0.01         0.01
  YS02001596YS02001600        1.20      1.20      1.35      0.01         0.01
  YS02001600YS02001601        1.44      1.44      1.70      0.01         0.01
  YS02001601YS02001602        1.62      1.62      1.73      1.39         0.01
  YS02001602YS02001605        1.59      1.59      1.62      2.37         0.01
  YS02001605YS02001607        1.55      1.59      1.55      1.68         1.55
  YS02001607YS02001610        0.93      0.93      0.97      0.01         0.01
  YS02001610YS02001613        0.92      0.92      0.97      0.01         0.01
  YS02001613YS02001616        0.87      0.87      0.92      0.01         0.01
  YS02001616YS02001619        0.85      0.85      0.87      0.01         0.08
  YS02001619YS02001622        0.84      0.85      0.84      1.08         0.82
  YS02001622YS02001625        0.84      0.84      1.08      0.01         0.01
  YS02001625YS02001629        0.69      0.69      1.08      0.01         0.01
  YS02001629YS02163301        1.05      1.05      1.06      0.47         0.44
  YS02001633YS02163601        1.08      1.08      1.12      0.63         0.63
  YS02001641YS02001644        0.86      0.94      0.86      1.75         0.86
  YS02001644YS02001647        0.55      0.55      0.86      0.03         0.01
  YS02001647YS02001649        0.55      0.55      0.61      0.01         0.01
  YS02001649YS02001757        0.59      0.61      0.59      0.51         0.42
  YS02001652YS02001649        0.47      0.47      0.61      0.01         0.01
  YS02001655YS02001652        0.33      0.33      0.45      0.01         0.01
  YS02001658YS02001655        0.24      0.24      0.33      0.01         0.01
  YS02001661YS02001658        0.10      0.10      0.24      0.01         0.01
  YS02001664YS02001661        0.01      0.01      0.13      0.01         0.01
  YS02001745YS02001748        0.01      0.01      0.15      0.01         0.01
  YS02001748YS02001751        0.21      0.21      0.26      0.01         0.01
  YS02001751YS02001754        0.26      0.26      0.33      0.01         0.01
  YS02001754YS02001757        0.36      0.36      0.59      0.01         0.01
  YS02001757CaochengTiaoxuchi        0.01      0.59      0.53      0.68         0.01
  YS02001759YS02001757        0.51      0.51      0.59      0.03         0.05
  YS02001762YS02001759        0.49      0.49      0.51      0.01         0.04
  YS02001765YS02001762        0.46      0.46      0.49      0.01         0.01
  YS02001767YS02001765        0.44      0.44      0.46      0.02         0.05
  YS02001770YS02001767        0.44      0.46      0.44      0.75         0.43
  YS02001774YS02001770        0.43      0.43      0.50      0.01         0.01
  YS02001779YS02001774        0.36      0.36      0.50      0.01         0.01
  YS02001783YS02001784        0.67      0.70      0.67      0.85         0.67
  YS02001784YS02001785        0.56      0.67      0.56      1.16         0.56
  YS02001786YS02001788        0.01      0.56      0.01      0.99         0.01
  YS02001790YS02001791        0.01      0.01      0.01      0.66         0.01
  YS02001882YS02001884        0.63      0.63      0.64      0.01         0.01
  YS02001884YS02001887        0.67      0.67      0.69      0.01         0.01
  YS02001887YS02001890        0.70      0.70      0.71      0.19         0.01
  YS02001890YS02001895        0.62      0.62      0.73      0.01         0.01
  YS02001895YS02001898        0.61      0.61      0.62      0.01         0.01
  YS02001898YS02001901        0.62      0.62      0.67      0.01         0.01
  YS02001901YS02001904        0.66      0.66      0.67      0.01         0.01
  YS02001904YS02001907        0.66      0.66      0.95      0.01         0.01
  YS02001907YS02006553        1.17      1.17      1.25      0.01         0.01
  YS02001910YS02001907        0.73      0.73      0.91      0.01         0.01
  YS02001915YS02001910        0.63      0.63      0.73      0.01         0.01
  YS02001918YS02001915        0.54      0.54      0.63      0.01         0.01
  YS02001920YS02001918        0.54      0.54      0.56      0.01         0.01
  YS02001923YS02001920        0.49      0.49      0.56      0.01         0.01
  YS02001926YS02001923        0.20      0.20      0.23      0.01         0.01
  YS02001929YS02001926        0.03      0.03      0.23      0.01         0.01
  YS02006553YS02006556        0.82      0.82      0.95      0.01         0.01
  YS02006556YS02006558        0.88      0.88      0.98      0.01         0.01
  YS02006558YS02006561        0.58      0.81      0.58      1.10         0.58
  YS02006561YS02001783        0.50      0.50      0.70      0.01         0.01
  YS02163301YS02001633        1.06      1.06      1.11      0.01         0.03
  YS02163601YS02164001        0.96      0.96      1.12      0.38         0.01
  YS02164001YS02001641        0.94      0.96      0.94      0.94         0.72
  
  
  ***************
  Pumping Summary
  ***************
  
  ---------------------------------------------------------------------------------------------------------
                                                  Min       Avg       Max     Total     Power    % Time Off
                        Percent   Number of      Flow      Flow      Flow    Volume     Usage    Pump Curve
  Pump                 Utilized   Start-Ups       LPS       LPS       LPS  10^6 ltr     Kw-hr    Low   High
  ---------------------------------------------------------------------------------------------------------
  CC-R1                   29.21           3      0.00    683.00    683.00     5.686     95.12    0.0   76.9
  CC-R2                   29.21           3      0.00    683.00    683.00     5.686     95.12    0.0   76.9
  CC-S1                   35.10          12      0.00    200.00    200.00     2.001     15.47    0.0   35.5
  CC-S2                   35.10          12      0.00    200.00    200.00     2.001     15.47    0.0   35.5
  JK-R1                    6.62         509      0.00    998.22   1000.00     1.882      4.53    0.0    0.0
  JK-R2                    6.62         509      0.00    998.22   1000.00     1.882      4.53    0.0    0.0
  JK-S                    20.44         734      0.00    296.99    300.00     1.696     38.89    0.0    0.0
  

  Analysis begun on:  Thu Jan 16 14:22:16 2025
  Analysis ended on:  Thu Jan 16 14:22:18 2025
  Total elapsed time: 00:00:02