
  EPA STORM WATER MANAGEMENT MODEL - VERSION 5.2 (Build 5.2.4)
  PYSWMM TOOLKIT API - VERSION v1.0 (2023-11-27)
  ------------------------------------------------------------

  WARNING 04: minimum elevation drop used for Conduit WS02004404WS02004405
  WARNING 03: negative offset ignored for Link YS02001904YS02001907
  
  ****************
  Analysis Options
  ****************
  Flow Units ............... LPS
  Process Models:
    Rainfall/Runoff ........ YES
    RDII ................... NO
    Snowmelt ............... NO
    Groundwater ............ NO
    Flow Routing ........... YES
    Ponding Allowed ........ NO
    Water Quality .......... NO
  Infiltration Method ...... HORTON
  Flow Routing Method ...... DYNWAVE
  Surcharge Method ......... EXTRAN
  Starting Date ............ 08/28/2015 08:00:00
  Ending Date .............. 08/28/2015 16:00:00
  Antecedent Dry Days ...... 8.0
  Report Time Step ......... 00:01:00
  Wet Time Step ............ 00:01:00
  Dry Time Step ............ 00:01:00
  Routing Time Step ........ 30.00 sec
  Variable Time Step ....... YES
  Maximum Trials ........... 8
  Number of Threads ........ 4
  Head Tolerance ........... 0.001500 m
  
  
  **************************        Volume         Depth
  Runoff Quantity Continuity     hectare-m            mm
  **************************     ---------       -------
  Total Precipitation ......         1.900        57.282
  Evaporation Loss .........         0.000         0.000
  Infiltration Loss ........         0.099         2.978
  Surface Runoff ...........         1.769        53.320
  Final Storage ............         0.033         0.996
  Continuity Error (%) .....        -0.022
  
  
  **************************        Volume        Volume
  Flow Routing Continuity        hectare-m      10^6 ltr
  **************************     ---------     ---------
  Dry Weather Inflow .......         0.025         0.248
  Wet Weather Inflow .......         1.768        17.684
  Groundwater Inflow .......         0.000         0.000
  RDII Inflow ..............         0.000         0.000
  External Inflow ..........         0.083         0.825
  External Outflow .........         1.659        16.591
  Flooding Loss ............         0.479         4.791
  Evaporation Loss .........         0.000         0.000
  Exfiltration Loss ........         0.000         0.000
  Initial Stored Volume ....         0.243         2.431
  Final Stored Volume ......         0.041         0.409
  Continuity Error (%) .....        -2.849
  
  
  *************************
  Highest Continuity Errors
  *************************
  Node WS02006256 (-15.83%)
  Node JK-storage (-8.63%)
  Node YS02001884 (5.29%)
  Node YS02001583 (-3.77%)
  
  
  ***************************
  Time-Step Critical Elements
  ***************************
  Link WS02006238WS02006235 (42.08%)
  Link YS02001793JiankangQianchi (27.86%)
  Link WS02003066WSF200 (6.60%)
  Link WS02004404WS02004405 (5.49%)
  Link WS02006235WS02006234 (2.02%)
  
  
  ********************************
  Highest Flow Instability Indexes
  ********************************
  Link WS02006256WS02006235 (42)
  Link WS02006229WS02006228 (40)
  Link WS02006113WS02006111 (38)
  Link WS02006252WS02006251 (35)
  Link WS02006235WS02006234 (31)
  
  
  *********************************
  Most Frequent Nonconverging Nodes
  *********************************
  Node CC-1 (46.43%)
  Node CC-2 (46.43%)
  Node JK-1 (46.43%)
  Node JK-2 (46.43%)
  Node WSC (46.43%)
  
  
  *************************
  Routing Time Step Summary
  *************************
  Minimum Time Step           :     0.00 sec
  Average Time Step           :     2.59 sec
  Maximum Time Step           :     6.43 sec
  % of Time in Steady State   :     0.00
  Average Iterations per Step :     5.32
  % of Steps Not Converging   :    46.43
  Time Step Frequencies       :
     30.000 - 13.228 sec      :     0.00 %
     13.228 -  5.833 sec      :     5.22 %
      5.833 -  2.572 sec      :    36.59 %
      2.572 -  1.134 sec      :    42.47 %
      1.134 -  0.500 sec      :    15.72 %
  
  
  ***************************
  Subcatchment Runoff Summary
  ***************************
  
  ------------------------------------------------------------------------------------------------------------------------------
                            Total      Total      Total      Total     Imperv       Perv      Total       Total     Peak  Runoff
                           Precip      Runon       Evap      Infil     Runoff     Runoff     Runoff      Runoff   Runoff   Coeff
  Subcatchment                 mm         mm         mm         mm         mm         mm         mm    10^6 ltr      LPS
  ------------------------------------------------------------------------------------------------------------------------------
  sub60                     57.28       0.00       0.00       1.78      49.20       5.09      54.30        0.71   509.23   0.948
  sub61                     57.28       0.00       0.00       2.59      46.41       7.16      53.57        0.98   707.38   0.935
  sub62                     57.28       0.00       0.00       1.19      51.41       3.40      54.81        1.50   989.92   0.957
  sub63                     57.28       0.00       0.00       4.79      39.70      11.82      51.52        1.17   790.65   0.899
  sub64                     57.28       0.00       0.00       2.42      47.48       6.18      53.66        1.29   809.38   0.937
  sub65                     57.28       0.00       0.00       2.09      48.58       5.36      53.93        1.48   903.77   0.942
  sub66                     57.28       0.00       0.00       5.95      39.59      10.67      50.26        2.34  1178.22   0.877
  sub67                     57.28       0.00       0.00       1.14      51.45       3.44      54.90        1.02   769.90   0.958
  sub68                     57.28       0.00       0.00       2.14      48.07       5.88      53.95        1.48  1012.92   0.942
  sub69                     57.28       0.00       0.00       1.91      48.58       6.68      55.26        2.05  1201.55   0.965
  sub70                     57.28       0.00       0.00       6.40      37.64      13.08      50.72        1.47   660.88   0.885
  sub71                     57.28       0.00       0.00       1.22      51.37       3.36      54.73        1.43   874.94   0.956
  sub72                     57.28       0.00       0.00       1.09      51.86       2.92      54.79        0.75   421.38   0.956
  
  
  ******************
  Node Depth Summary
  ******************
  
  ---------------------------------------------------------------------------------
                                 Average  Maximum  Maximum  Time of Max    Reported
                                   Depth    Depth      HGL   Occurrence   Max Depth
  Node                 Type       Meters   Meters   Meters  days hr:min      Meters
  ---------------------------------------------------------------------------------
  WS02003060           JUNCTION     0.24     0.38     5.31     0  03:05        0.38
  WS02003066           JUNCTION     0.19     0.30     5.85     0  03:04        0.30
  WS02003067           JUNCTION     0.50     0.70     6.02     0  03:03        0.70
  WS02003069           JUNCTION     0.26     0.43     5.01     0  03:04        0.43
  WS02003072           JUNCTION     0.32     0.50     4.87     0  03:05        0.50
  WS02003073           JUNCTION     0.18     0.30     4.36     0  03:06        0.30
  WS02004401           JUNCTION     0.59     0.85     6.85     0  03:00        0.85
  WS02004402           JUNCTION     0.62     0.87     6.83     0  03:00        0.87
  WS02004403           JUNCTION     0.64     0.89     6.82     0  03:00        0.89
  WS02004404           JUNCTION     0.72     0.96     6.81     0  03:01        0.96
  WS02004405           JUNCTION     0.71     0.95     6.80     0  03:01        0.95
  WS02004406           JUNCTION     0.72     0.95     6.78     0  03:01        0.95
  WS02004407           JUNCTION     0.18     0.29     6.61     0  03:01        0.29
  WS02004409           JUNCTION     0.40     0.66     6.43     0  03:03        0.66
  WS02004410           JUNCTION     0.42     0.68     6.40     0  03:03        0.68
  WS02004411           JUNCTION     0.44     0.69     6.37     0  03:03        0.69
  WS02004412           JUNCTION     0.46     0.69     6.33     0  03:04        0.69
  WS02004413           JUNCTION     0.61     0.85     6.32     0  03:04        0.85
  WS02006109           JUNCTION     0.67     1.03     7.65     0  02:56        1.02
  WS02006110           JUNCTION     0.67     0.98     7.57     0  02:56        0.96
  WS02006111           JUNCTION     0.18     0.29     6.99     0  02:58        0.29
  WS02006112           JUNCTION     0.75     1.06     6.94     0  03:01        1.05
  WS02006113           JUNCTION     0.28     0.46     7.35     0  03:01        0.45
  WS02006115           JUNCTION     0.48     0.75     6.89     0  03:01        0.75
  WS02006116           JUNCTION     0.56     0.83     6.87     0  03:00        0.83
  WS02006228           JUNCTION     0.67     1.09     7.74     0  03:04        1.03
  WS02006229           JUNCTION     0.64     1.11     7.80     0  03:04        1.03
  WS02006230           JUNCTION     0.66     1.23     7.98     0  03:04        1.15
  WS02006231           JUNCTION     0.46     1.63     8.75     0  02:01        1.44
  WS02006232           JUNCTION     0.60     1.97     9.01     0  03:05        1.97
  WS02006234           JUNCTION     0.54     1.96     9.12     0  03:05        1.96
  WS02006235           JUNCTION     0.58     2.00     9.16     0  03:05        2.00
  WS02006238           JUNCTION     0.61     2.08     9.22     0  03:05        2.08
  WS02006239           JUNCTION     0.58     2.03     9.24     0  03:05        2.03
  WS02006240           JUNCTION     0.54     1.91     9.20     0  03:05        1.91
  WS02006242           JUNCTION     0.60     1.55     8.82     0  01:46        1.55
  WS02006243           JUNCTION     0.52     1.48     8.90     0  01:54        1.48
  WS02006245           JUNCTION     0.52     1.56     9.04     0  01:57        1.52
  WS02006247           JUNCTION     0.54     1.47     8.97     0  01:54        1.42
  WS02006248           JUNCTION     0.51     1.10     8.69     0  01:45        1.10
  WS02006249           JUNCTION     0.53     1.09     8.69     0  01:45        1.09
  WS02006251           JUNCTION     0.53     1.53     9.20     0  01:52        1.14
  WS02006252           JUNCTION     0.34     1.50     9.74     0  00:00        1.02
  WS02006256           JUNCTION     1.12     2.35     9.28     0  00:00        2.35
  WSF200               JUNCTION     0.17     0.29     5.52     0  03:05        0.29
  YS02001580           JUNCTION     0.13     1.05     9.59     0  02:05        0.77
  YS02001583           JUNCTION     0.16     1.09     9.58     0  02:05        0.84
  YS02001586           JUNCTION     0.26     1.13     9.30     0  02:05        1.13
  YS02001590           JUNCTION     0.37     1.40     9.26     0  02:05        1.38
  YS02001593           JUNCTION     0.30     1.31     9.17     0  02:05        1.29
  YS02001596           JUNCTION     0.41     1.68     9.10     0  02:05        1.65
  YS02001600           JUNCTION     0.50     1.87     9.00     0  02:05        1.86
  YS02001601           JUNCTION     0.69     2.06     8.90     0  02:04        2.06
  YS02001602           JUNCTION     0.59     1.87     8.77     0  02:04        1.87
  YS02001605           JUNCTION     0.54     1.78     8.68     0  02:04        1.78
  YS02001607           JUNCTION     0.51     1.65     8.49     0  02:24        1.65
  YS02001610           JUNCTION     0.55     1.68     8.48     0  02:04        1.68
  YS02001613           JUNCTION     0.51     1.68     8.52     0  02:04        1.67
  YS02001616           JUNCTION     0.44     1.61     8.52     0  02:04        1.60
  YS02001619           JUNCTION     0.42     1.61     8.54     0  02:14        1.61
  YS02001622           JUNCTION     0.41     1.57     8.47     0  02:14        1.57
  YS02001625           JUNCTION     0.65     1.78     8.38     0  02:08        1.78
  YS02001629           JUNCTION     0.54     1.85     8.40     0  02:09        1.85
  YS02001633           JUNCTION     0.61     2.01     8.47     0  02:09        1.99
  YS02001641           JUNCTION     0.57     1.95     8.38     0  02:10        1.93
  YS02001644           JUNCTION     0.56     1.92     8.35     0  02:10        1.92
  YS02001647           JUNCTION     0.34     1.81     8.42     0  02:11        1.72
  YS02001649           JUNCTION     0.37     2.05     8.44     0  02:10        1.92
  YS02001652           JUNCTION     0.25     2.13     8.72     0  02:10        1.77
  YS02001655           JUNCTION     0.18     2.06     8.91     0  02:10        1.56
  YS02001658           JUNCTION     0.13     2.20     9.34     0  02:10        1.33
  YS02001661           JUNCTION     0.16     1.71     9.11     0  02:11        1.10
  YS02001664           JUNCTION     0.07     0.65     8.57     0  02:11        0.59
  YS02001745           JUNCTION     0.08     0.84     8.35     0  02:11        0.77
  YS02001748           JUNCTION     0.12     2.26     9.34     0  02:10        1.18
  YS02001751           JUNCTION     0.14     2.02     8.90     0  02:10        1.36
  YS02001754           JUNCTION     0.20     1.95     8.56     0  02:10        1.62
  YS02001757           JUNCTION     0.37     2.09     8.35     0  02:10        1.95
  YS02001759           JUNCTION     0.31     2.02     8.39     0  02:11        1.95
  YS02001762           JUNCTION     0.30     2.03     8.43     0  02:10        1.93
  YS02001765           JUNCTION     0.28     2.01     8.46     0  02:10        1.89
  YS02001767           JUNCTION     0.28     1.97     8.46     0  02:10        1.88
  YS02001770           JUNCTION     0.29     1.95     8.44     0  02:10        1.91
  YS02001774           JUNCTION     0.35     2.01     8.43     0  02:10        1.97
  YS02001779           JUNCTION     0.19     1.68     8.37     0  02:09        1.68
  YS02001783           JUNCTION     0.31     1.35     7.49     0  02:08        1.23
  YS02001784           JUNCTION     0.32     1.16     7.23     0  02:08        1.11
  YS02001786           JUNCTION     0.27     0.93     6.96     0  02:08        0.87
  YS02001788           JUNCTION     0.19     0.62     6.60     0  02:15        0.62
  YS02001790           JUNCTION     0.23     0.72     6.36     0  02:15        0.71
  YS02001791           JUNCTION     0.14     0.44     5.91     0  02:14        0.43
  YS02001793           JUNCTION     0.09     0.25     5.09     0  02:16        0.25
  YS02001882           JUNCTION     0.39     1.65     8.36     0  02:12        1.64
  YS02001884           JUNCTION     0.47     1.74     8.36     0  02:12        1.74
  YS02001887           JUNCTION     0.55     1.82     8.36     0  02:12        1.82
  YS02001890           JUNCTION     0.57     1.81     8.32     0  02:08        1.81
  YS02001895           JUNCTION     0.36     1.58     8.32     0  02:08        1.56
  YS02001898           JUNCTION     0.36     1.58     8.32     0  02:08        1.56
  YS02001901           JUNCTION     0.47     1.69     8.30     0  02:08        1.68
  YS02001904           JUNCTION     0.45     1.65     8.28     0  02:08        1.64
  YS02001907           JUNCTION     0.76     1.96     8.25     0  02:08        1.96
  YS02001910           JUNCTION     0.57     1.97     8.47     0  02:09        1.88
  YS02001915           JUNCTION     0.39     1.91     8.62     0  02:09        1.78
  YS02001918           JUNCTION     0.23     1.81     8.88     0  02:09        1.44
  YS02001920           JUNCTION     0.31     2.14     9.15     0  02:09        1.51
  YS02001923           JUNCTION     0.18     2.03     9.29     0  02:09        1.27
  YS02001926           JUNCTION     0.20     1.90     9.35     0  02:09        1.09
  YS02001929           JUNCTION     0.12     1.78     9.47     0  02:09        0.86
  YS02006553           JUNCTION     0.76     1.98     8.26     0  02:11        1.97
  YS02006556           JUNCTION     0.73     1.96     8.27     0  02:08        1.96
  YS02006558           JUNCTION     0.77     2.01     8.28     0  02:08        2.00
  YS02006561           JUNCTION     0.20     1.09     7.75     0  02:08        0.90
  YS02163301           JUNCTION     0.56     1.92     8.43     0  02:09        1.91
  YS02163601           JUNCTION     0.64     2.03     8.42     0  02:10        2.02
  YS02164001           JUNCTION     0.56     1.94     8.40     0  02:10        1.94
  CC-1                 OUTFALL      0.00     0.00     0.00     0  00:00        0.00
  CC-2                 OUTFALL      0.00     0.00     0.00     0  00:00        0.00
  JK-1                 OUTFALL      0.00     0.00     0.00     0  00:00        0.00
  JK-2                 OUTFALL      0.00     0.00     0.00     0  00:00        0.00
  WSC                  OUTFALL      0.18     0.30     0.97     0  03:07        0.30
  CC-storage           STORAGE      0.18     0.80     6.30     0  00:00        0.76
  JK-storage           STORAGE      0.02     2.99     3.79     0  00:00        0.68
  
  
  *******************
  Node Inflow Summary
  *******************
  
  -------------------------------------------------------------------------------------------------
                                  Maximum  Maximum                  Lateral       Total        Flow
                                  Lateral    Total  Time of Max      Inflow      Inflow     Balance
                                   Inflow   Inflow   Occurrence      Volume      Volume       Error
  Node                 Type           LPS      LPS  days hr:min    10^6 ltr    10^6 ltr     Percent
  -------------------------------------------------------------------------------------------------
  WS02003060           JUNCTION     16.53   547.98     0  03:05       0.471        5.08       0.062
  WS02003066           JUNCTION      0.00   530.52     0  03:04           0        4.62       0.041
  WS02003067           JUNCTION      0.00   530.46     0  03:04           0        4.62       0.103
  WS02003069           JUNCTION      0.32   547.26     0  03:05     0.00912        5.09       0.109
  WS02003072           JUNCTION      0.00   546.81     0  03:04           0        5.08       0.179
  WS02003073           JUNCTION      1.82   548.58     0  03:05      0.0519        5.13       0.139
  WS02004401           JUNCTION      0.00   537.82     0  03:00           0        4.74       0.248
  WS02004402           JUNCTION      0.00   537.88     0  02:59           0        4.73       0.248
  WS02004403           JUNCTION      0.00   535.31     0  03:00           0        4.72       0.240
  WS02004404           JUNCTION      0.16   535.34     0  03:01     0.00462        4.71       0.206
  WS02004405           JUNCTION      0.04   535.40     0  02:59     0.00109         4.7       0.278
  WS02004406           JUNCTION      0.00   535.78     0  02:59           0        4.69       0.487
  WS02004407           JUNCTION      0.00   534.48     0  03:01           0        4.67       0.042
  WS02004409           JUNCTION      0.00   533.85     0  03:01           0        4.66       0.091
  WS02004410           JUNCTION      0.00   533.00     0  03:01           0        4.66       0.133
  WS02004411           JUNCTION      0.00   532.09     0  03:02           0        4.65       0.156
  WS02004412           JUNCTION      0.00   530.93     0  03:02           0        4.65       0.196
  WS02004413           JUNCTION      0.00   531.42     0  03:02           0        4.64       0.347
  WS02006109           JUNCTION      1.23   545.23     0  02:58      0.0351        4.79       0.170
  WS02006110           JUNCTION      0.00   545.35     0  02:58           0        4.79       0.166
  WS02006111           JUNCTION      0.00   559.53     0  03:01           0        4.78       0.034
  WS02006112           JUNCTION      0.00   543.38     0  03:00           0        4.77       0.464
  WS02006113           JUNCTION      0.00   554.57     0  02:56           0        4.78       0.050
  WS02006115           JUNCTION      0.00   548.68     0  03:00           0        4.75       0.182
  WS02006116           JUNCTION      0.00   539.48     0  02:58           0        4.74       0.090
  WS02006228           JUNCTION      0.00   544.04     0  02:58           0        4.76       0.090
  WS02006229           JUNCTION      0.00   543.92     0  02:58           0        4.77       0.157
  WS02006230           JUNCTION     10.28   587.48     0  03:05       0.293        4.78       0.110
  WS02006231           JUNCTION      0.00   571.75     0  03:05           0        4.48      -0.033
  WS02006232           JUNCTION      0.00   565.23     0  03:05           0        4.49       0.276
  WS02006234           JUNCTION      0.00   552.06     0  02:54           0        4.48      -0.396
  WS02006235           JUNCTION      0.00   551.09     0  01:45           0        4.63       0.108
  WS02006238           JUNCTION      0.00   428.99     0  03:15           0        3.54      -0.453
  WS02006239           JUNCTION      0.00   420.97     0  03:15           0         3.4      -0.458
  WS02006240           JUNCTION      0.00   417.29     0  03:14           0        3.35      -0.322
  WS02006242           JUNCTION      0.00   418.68     0  03:14           0        3.35      -0.040
  WS02006243           JUNCTION      0.00   431.65     0  01:54           0        3.34      -0.062
  WS02006245           JUNCTION      0.00   504.25     0  01:49           0        3.38       0.986
  WS02006247           JUNCTION      0.00   481.21     0  01:52           0        3.37      -0.204
  WS02006248           JUNCTION      0.00   538.39     0  01:52           0        3.38       0.097
  WS02006249           JUNCTION      0.00   520.89     0  01:56           0        3.54       0.778
  WS02006251           JUNCTION      0.08   423.69     0  01:51     0.00219        3.54       0.094
  WS02006252           JUNCTION      0.00   400.00     0  00:00           0        3.53      -0.260
  WS02006256           JUNCTION      0.00   300.00     0  00:00           0        1.55     -13.666
  WSF200               JUNCTION      0.00   530.65     0  03:05           0        4.61       0.019
  YS02001580           JUNCTION      0.00    97.53     0  02:05           0     0.00405      -1.860
  YS02001583           JUNCTION      0.00   151.45     0  02:04           0      0.0152      -3.636
  YS02001586           JUNCTION    660.88   660.88     0  02:15        1.47        1.48       0.084
  YS02001590           JUNCTION      0.00   318.25     0  02:14           0        1.21      -0.036
  YS02001593           JUNCTION      0.00   317.99     0  02:14           0        1.21       0.019
  YS02001596           JUNCTION      0.00   317.89     0  02:20           0        1.21       0.007
  YS02001600           JUNCTION      0.00   317.89     0  02:31           0        1.21       0.023
  YS02001601           JUNCTION   1201.55  1519.12     0  02:14        2.05        3.26       0.030
  YS02001602           JUNCTION      0.00   510.58     0  02:37           0        2.16       0.027
  YS02001605           JUNCTION      0.00   510.65     0  02:37           0        2.08       0.028
  YS02001607           JUNCTION      0.00   510.70     0  02:37           0        2.08       0.099
  YS02001610           JUNCTION      0.00   619.88     0  02:15           0        2.21       0.110
  YS02001613           JUNCTION      0.00   513.07     0  02:04           0        1.87       0.095
  YS02001616           JUNCTION      0.00   514.93     0  02:04           0        1.87       0.027
  YS02001619           JUNCTION   1178.22  1178.22     0  02:15        2.34        4.08       0.001
  YS02001622           JUNCTION      0.00   966.32     0  02:30           0        3.95       0.004
  YS02001625           JUNCTION      0.00  1240.33     0  02:15           0        4.06       0.221
  YS02001629           JUNCTION      0.00   966.36     0  02:30           0        3.46       0.031
  YS02001633           JUNCTION    903.97  1383.75     0  02:08        1.49        4.81       0.076
  YS02001641           JUNCTION      0.00  1383.78     0  02:08           0        4.68       0.063
  YS02001644           JUNCTION    809.42  1796.56     0  02:08        1.29        5.96       0.058
  YS02001647           JUNCTION      0.00  1796.79     0  02:08           0        5.74       0.006
  YS02001649           JUNCTION      0.00  2036.76     0  02:08           0        6.92       0.006
  YS02001652           JUNCTION      0.00   840.34     0  02:12           0        1.17      -0.042
  YS02001655           JUNCTION      0.15   840.58     0  02:12     0.00439        1.17       0.038
  YS02001658           JUNCTION      0.00   839.88     0  02:12           0        1.17      -0.030
  YS02001661           JUNCTION      0.00   821.00     0  02:12           0        1.17       0.012
  YS02001664           JUNCTION    790.65   790.65     0  02:13        1.17        1.17      -0.006
  YS02001745           JUNCTION    509.23   509.23     0  02:13       0.713       0.714       0.123
  YS02001748           JUNCTION      0.04   584.76     0  02:10     0.00128       0.714      -0.166
  YS02001751           JUNCTION      0.01   532.91     0  02:13    0.000313        0.72       0.057
  YS02001754           JUNCTION      0.26   532.73     0  02:13     0.00741       0.733      -0.070
  YS02001757           JUNCTION      0.00  3350.58     0  02:17           0        10.1       0.019
  YS02001759           JUNCTION    707.42  1339.76     0  02:13       0.984        2.41       0.000
  YS02001762           JUNCTION      0.00   797.54     0  02:17           0        1.43       0.007
  YS02001765           JUNCTION      0.00   796.97     0  02:17           0        1.43       0.005
  YS02001767           JUNCTION      0.54   796.39     0  02:17      0.0152        1.43       0.011
  YS02001770           JUNCTION    990.07   990.07     0  02:14        1.51        1.55       0.001
  YS02001774           JUNCTION      0.00   357.93     0  02:13           0       0.147       0.822
  YS02001779           JUNCTION      0.01   358.02     0  02:13    0.000142       0.106      -0.423
  YS02001783           JUNCTION      0.00  1164.50     0  02:13           0        3.71       0.008
  YS02001784           JUNCTION      1.06  1165.68     0  02:12      0.0302        3.74       0.015
  YS02001786           JUNCTION      0.06  1165.48     0  02:12      0.0016        3.74       0.019
  YS02001788           JUNCTION      0.07  1165.47     0  02:12     0.00202        3.74       0.008
  YS02001790           JUNCTION      0.15  1178.57     0  02:12     0.00442        3.74       0.004
  YS02001791           JUNCTION      0.00  1283.55     0  02:15           0        3.74       0.001
  YS02001793           JUNCTION      0.00  1236.41     0  02:16           0        3.74      -0.001
  YS02001882           JUNCTION      0.00    37.47     0  02:06           0      0.0121       5.622
  YS02001884           JUNCTION      0.00    72.99     0  02:06           0      0.0474       5.584
  YS02001887           JUNCTION    770.35   770.76     0  02:13        1.03        1.07       0.425
  YS02001890           JUNCTION      0.00   771.18     0  02:13           0        1.03       0.504
  YS02001895           JUNCTION      0.00   517.02     0  02:15           0       0.956       0.161
  YS02001898           JUNCTION      0.00   517.24     0  02:17           0       0.954       0.031
  YS02001901           JUNCTION      0.00   517.20     0  02:17           0       0.957       0.344
  YS02001904           JUNCTION      0.00   517.11     0  02:17           0       0.961       0.298
  YS02001907           JUNCTION      0.00  1827.16     0  02:13           0        3.22       0.566
  YS02001910           JUNCTION      0.00  1313.70     0  02:13           0        2.26       0.319
  YS02001915           JUNCTION    874.96  1313.40     0  02:13        1.43         2.3       0.070
  YS02001918           JUNCTION      0.00   457.36     0  02:13           0       0.898       0.022
  YS02001920           JUNCTION      2.87   457.55     0  02:13      0.0818       0.882       0.104
  YS02001923           JUNCTION      0.04   450.83     0  02:13     0.00107       0.785      -0.040
  YS02001926           JUNCTION      0.05   450.29     0  02:13     0.00149       0.764       0.007
  YS02001929           JUNCTION    421.38   421.38     0  02:14       0.753       0.754      -0.039
  YS02006553           JUNCTION      0.00   798.51     0  02:27           0        2.24       0.531
  YS02006556           JUNCTION      0.00   798.66     0  02:27           0        2.25       0.363
  YS02006558           JUNCTION   1013.80  1166.55     0  02:08        1.51        3.74       0.093
  YS02006561           JUNCTION      0.00  1166.61     0  02:08           0        3.71       0.003
  YS02163301           JUNCTION      0.00   968.24     0  02:29           0        3.45       0.050
  YS02163601           JUNCTION      0.11  1384.06     0  02:08     0.00313        4.67       0.108
  YS02164001           JUNCTION      0.00  1384.06     0  02:08           0        4.67       0.055
  CC-1                 OUTFALL       0.00   683.00     0  00:00           0        4.38       0.000
  CC-2                 OUTFALL       0.00   683.00     0  00:00           0        4.38       0.000
  JK-1                 OUTFALL       0.00  1000.00     0  00:00           0        1.35       0.000
  JK-2                 OUTFALL       0.00  1000.00     0  00:00           0        1.35       0.000
  WSC                  OUTFALL       0.00   548.56     0  03:07           0        5.12       0.000
  CC-storage           STORAGE       0.00  3350.26     0  02:17           0        12.3      -0.360
  JK-storage           STORAGE       0.00  1282.19     0  02:16           0        3.89      -7.948
  
  
  **********************
  Node Surcharge Summary
  **********************
  
  Surcharging occurs when water rises above the top of the highest conduit.
  ---------------------------------------------------------------------
                                               Max. Height   Min. Depth
                                   Hours       Above Crown    Below Rim
  Node                 Type      Surcharged         Meters       Meters
  ---------------------------------------------------------------------
  WS02006109           JUNCTION        1.75          0.213        1.607
  WS02006110           JUNCTION        0.09          0.074        1.776
  WS02006112           JUNCTION        1.10          0.057        1.623
  WS02006228           JUNCTION        1.73          0.259        1.941
  WS02006229           JUNCTION        1.76          0.306        2.144
  WS02006230           JUNCTION        0.08          0.150        1.420
  WS02006231           JUNCTION        1.02          0.921        0.609
  WS02006232           JUNCTION        1.86          1.268        0.212
  WS02006234           JUNCTION        1.45          1.240        0.000
  WS02006235           JUNCTION        1.69          1.290        0.000
  WS02006238           JUNCTION        1.80          1.358        0.072
  WS02006239           JUNCTION        1.71          1.290        0.000
  WS02006240           JUNCTION        1.68          1.201        0.189
  WS02006242           JUNCTION        1.84          0.820        0.000
  WS02006243           JUNCTION        1.65          0.770        0.000
  WS02006245           JUNCTION        1.62          0.850        0.000
  WS02006247           JUNCTION        1.66          0.760        0.000
  WS02006248           JUNCTION        1.60          0.380        0.000
  WS02006249           JUNCTION        1.64          0.390        0.000
  WS02006251           JUNCTION        1.32          0.500        0.680
  WS02006252           JUNCTION        2.45          1.100        0.000
  WS02006256           JUNCTION        6.83          2.050        0.000
  YS02001580           JUNCTION        0.53          0.450        0.000
  YS02001583           JUNCTION        0.54          0.447        0.053
  YS02001586           JUNCTION        0.63          0.510        0.000
  YS02001590           JUNCTION        0.70          0.750        0.000
  YS02001593           JUNCTION        0.70          0.692        0.148
  YS02001596           JUNCTION        0.80          0.949        0.121
  YS02001600           JUNCTION        0.96          1.190        0.000
  YS02001601           JUNCTION        1.32          1.440        0.000
  YS02001602           JUNCTION        1.21          1.270        0.000
  YS02001605           JUNCTION        1.16          1.180        0.000
  YS02001607           JUNCTION        0.63          0.647        0.033
  YS02001610           JUNCTION        0.66          0.680        0.000
  YS02001613           JUNCTION        0.62          0.681        0.019
  YS02001616           JUNCTION        0.58          0.610        0.000
  YS02001619           JUNCTION        0.57          0.610        0.000
  YS02001622           JUNCTION        0.56          0.568        0.052
  YS02001625           JUNCTION        0.75          0.780        0.000
  YS02001629           JUNCTION        0.46          0.470        0.000
  YS02001633           JUNCTION        0.76          0.993        0.067
  YS02001641           JUNCTION        0.64          0.946        0.154
  YS02001644           JUNCTION        0.57          0.920        0.000
  YS02001647           JUNCTION        0.33          0.809        0.091
  YS02001649           JUNCTION        0.36          1.050        0.000
  YS02001652           JUNCTION        0.27          1.096        0.034
  YS02001655           JUNCTION        0.20          1.059        0.141
  YS02001658           JUNCTION        0.14          1.198        0.102
  YS02001661           JUNCTION        0.01          0.637        0.753
  YS02001748           JUNCTION        0.08          1.179        0.011
  YS02001751           JUNCTION        0.16          1.018        0.182
  YS02001754           JUNCTION        0.20          0.899        0.251
  YS02001757           JUNCTION        0.35          1.087        0.123
  YS02001759           JUNCTION        0.30          1.021        0.189
  YS02001762           JUNCTION        0.29          1.028        0.122
  YS02001765           JUNCTION        0.28          1.010        0.090
  YS02001767           JUNCTION        0.27          0.972        0.058
  YS02001770           JUNCTION        0.26          0.920        0.000
  YS02001774           JUNCTION        0.29          1.006        0.044
  YS02001779           JUNCTION        0.22          0.680        0.000
  YS02001783           JUNCTION        0.48          0.551        1.049
  YS02001784           JUNCTION        0.45          0.362        1.128
  YS02001786           JUNCTION        0.35          0.130        1.300
  YS02001882           JUNCTION        0.43          0.645        0.185
  YS02001884           JUNCTION        0.44          0.685        0.185
  YS02001887           JUNCTION        0.47          0.773        0.177
  YS02001890           JUNCTION        0.48          0.760        0.000
  YS02001895           JUNCTION        0.42          0.576        0.174
  YS02001898           JUNCTION        0.41          0.555        0.185
  YS02001901           JUNCTION        0.46          0.690        0.180
  YS02001904           JUNCTION        0.45          0.646        0.204
  YS02001907           JUNCTION        0.69          0.950        0.000
  YS02001910           JUNCTION        0.51          0.965        0.135
  YS02001915           JUNCTION        0.42          0.906        0.094
  YS02001918           JUNCTION        0.34          0.810        0.000
  YS02001920           JUNCTION        0.36          1.140        0.000
  YS02001923           JUNCTION        0.05          0.820        0.000
  YS02001926           JUNCTION        0.09          0.900        0.000
  YS02001929           JUNCTION        0.01          0.780        0.000
  YS02006553           JUNCTION        0.71          0.979        0.211
  YS02006556           JUNCTION        0.60          0.918        0.432
  YS02006558           JUNCTION        0.59          0.908        0.492
  YS02006561           JUNCTION        0.31          0.289        0.861
  YS02163301           JUNCTION        0.74          0.917        0.113
  YS02163601           JUNCTION        0.79          1.026        0.054
  YS02164001           JUNCTION        0.66          0.944        0.156
  
  
  *********************
  Node Flooding Summary
  *********************
  
  Flooding refers to all water that overflows a node, whether it ponds or not.
  --------------------------------------------------------------------------
                                                             Total   Maximum
                                 Maximum   Time of Max       Flood    Ponded
                        Hours       Rate    Occurrence      Volume     Depth
  Node                 Flooded       LPS   days hr:min    10^6 ltr    Meters
  --------------------------------------------------------------------------
  WS02006234              0.01     13.38      0  03:05       0.000     0.000
  WS02006235              0.01     17.27      0  03:05       0.000     0.000
  WS02006239              0.01      5.70      0  03:05       0.000     0.000
  WS02006242              0.01    106.00      0  01:52       0.001     0.000
  WS02006243              0.01    105.97      0  01:54       0.000     0.000
  WS02006245              0.01    141.93      0  01:57       0.000     0.000
  WS02006247              0.01    228.50      0  01:54       0.000     0.000
  WS02006248              0.35    286.32      0  01:56       0.011     0.000
  WS02006249              1.19    188.98      0  01:56       0.121     0.000
  WS02006252              0.01    293.41      0  02:01       0.002     0.000
  WS02006256              1.40    296.99      0  01:43       0.674     0.000
  YS02001580              0.01     89.08      0  02:05       0.000     0.000
  YS02001586              0.41    343.36      0  02:15       0.253     0.000
  YS02001590              0.01      3.66      0  02:05       0.000     0.000
  YS02001600              0.01      1.15      0  02:05       0.000     0.000
  YS02001601              0.55   1121.08      0  02:14       1.098     0.000
  YS02001602              0.38     61.94      0  02:14       0.078     0.000
  YS02001605              0.01      3.39      0  02:04       0.000     0.000
  YS02001610              0.34    619.77      0  02:15       0.464     0.000
  YS02001616              0.01      8.51      0  02:04       0.000     0.000
  YS02001619              0.01      0.50      0  02:14       0.000     0.000
  YS02001625              0.29   1240.20      0  02:15       0.722     0.000
  YS02001629              0.09    179.22      0  02:12       0.033     0.000
  YS02001644              0.13    737.36      0  02:13       0.206     0.000
  YS02001649              0.01     15.57      0  02:10       0.000     0.000
  YS02001770              0.01     12.39      0  02:10       0.000     0.000
  YS02001779              0.11    357.90      0  02:13       0.090     0.000
  YS02001890              0.14    257.64      0  02:13       0.065     0.000
  YS02001907              0.29   1679.67      0  02:13       0.967     0.000
  YS02001918              0.01    105.31      0  02:09       0.001     0.000
  YS02001920              0.01     58.84      0  02:09       0.000     0.000
  YS02001923              0.01    150.43      0  02:09       0.000     0.000
  YS02001926              0.01     20.17      0  02:09       0.000     0.000
  YS02001929              0.01    302.65      0  02:09       0.001     0.000
  
  
  **********************
  Storage Volume Summary
  **********************
  
  ------------------------------------------------------------------------------------------------
                         Average    Avg   Evap  Exfil     Maximum    Max    Time of Max    Maximum
                          Volume   Pcnt   Pcnt   Pcnt      Volume   Pcnt     Occurrence    Outflow
  Storage Unit           1000 m³   Full   Loss   Loss     1000 m³   Full    days hr:min        LPS
  ------------------------------------------------------------------------------------------------
  CC-storage               0.512    8.0    0.0    0.0       2.229   34.8       0  00:00    1783.53
  JK-storage               0.001    0.4    0.0    0.0       0.150   51.6       0  00:00    2300.00
  
  
  ***********************
  Outfall Loading Summary
  ***********************
  
  -----------------------------------------------------------
                         Flow       Avg       Max       Total
                         Freq      Flow      Flow      Volume
  Outfall Node           Pcnt       LPS       LPS    10^6 ltr
  -----------------------------------------------------------
  CC-1                  41.43    683.00    683.00       4.383
  CC-2                  41.43    683.00    683.00       4.383
  JK-1                  10.19    998.10   1000.00       1.352
  JK-2                  10.19    998.10   1000.00       1.352
  WSC                   99.95    261.55    548.56       5.120
  -----------------------------------------------------------
  System                40.64   3623.74   3896.95      16.591
  
  
  ********************
  Link Flow Summary
  ********************
  
  -----------------------------------------------------------------------------
                                 Maximum  Time of Max   Maximum    Max/    Max/
                                  |Flow|   Occurrence   |Veloc|    Full    Full
  Link                 Type          LPS  days hr:min     m/sec    Flow   Depth
  -----------------------------------------------------------------------------
  1                    CONDUIT    548.56     0  03:07      2.82    0.19    0.30
  WS02003060WS02003069 CONDUIT    546.94     0  03:05      1.64    0.21    0.34
  WS02003066WSF200     CONDUIT    530.65     0  03:05      2.85    0.09    0.22
  WS02003067WS02003066 CONDUIT    530.52     0  03:04      1.20    0.17    0.41
  WS02003069WS02003072 CONDUIT    546.81     0  03:04      1.36    0.26    0.38
  WS02003072WS02003073 CONDUIT    546.76     0  03:05      1.43    1.18    0.37
  WS02004401WS02004402 CONDUIT    537.88     0  02:59      1.22    0.65    0.86
  WS02004402WS02004403 CONDUIT    535.31     0  03:00      1.24    0.77    0.88
  WS02004403WS02004404 CONDUIT    535.18     0  03:01      1.24    0.39    0.92
  WS02004404WS02004405 CONDUIT    535.36     0  02:59      1.45    5.25    0.96
  WS02004405WS02004406 CONDUIT    535.78     0  02:59      1.46    1.06    0.95
  WS02004406WS02004407 CONDUIT    534.48     0  03:01      1.04    0.24    0.62
  WS02004407WS02004409 CONDUIT    533.85     0  03:01      1.59    0.19    0.48
  WS02004409WS02004410 CONDUIT    533.00     0  03:01      1.06    0.69    0.67
  WS02004410WS02004411 CONDUIT    532.09     0  03:02      1.12    0.73    0.68
  WS02004411WS02004412 CONDUIT    530.93     0  03:02      1.22    0.75    0.69
  WS02004412WS02004413 CONDUIT    531.42     0  03:02      1.22    0.36    0.77
  WS02004413WS02003067 CONDUIT    530.46     0  03:04      1.10    0.23    0.59
  WS02006109WS02006110 CONDUIT    545.35     0  02:58      1.08    1.05    1.00
  WS02006110WS02006113 CONDUIT    554.57     0  02:56      1.32    0.50    0.79
  WS02006111WS02006112 CONDUIT    543.38     0  03:00      1.95    0.26    0.67
  WS02006112WS02006115 CONDUIT    548.68     0  03:00      0.84    0.32    0.87
  WS02006113WS02006111 CONDUIT    559.53     0  03:01      2.46    0.67    0.46
  WS02006115WS02006116 CONDUIT    539.48     0  02:58      1.29    0.69    0.76
  WS02006116WS02004401 CONDUIT    537.82     0  03:00      1.21    0.74    0.84
  WS02006228WS02006109 CONDUIT    544.00     0  02:58      1.08    2.38    1.00
  WS02006229WS02006228 CONDUIT    544.04     0  02:58      1.12    1.80    1.00
  WS02006230WS02006229 CONDUIT    543.92     0  02:58      1.41   12.10    1.00
  WS02006231WS02006230 CONDUIT    577.20     0  03:05      1.51    8.76    1.00
  WS02006232WS02006231 CONDUIT    571.75     0  03:05      1.49    1.20    1.00
  WS02006234WS02006232 CONDUIT    565.23     0  03:05      1.47    1.14    1.00
  WS02006235WS02006234 CONDUIT    552.06     0  02:54      1.43    5.82    1.00
  WS02006238WS02006235 CONDUIT    451.89     0  03:15      1.45    1.01    1.00
  WS02006239WS02006238 CONDUIT    428.99     0  03:15      1.11    1.37    1.00
  WS02006240WS02006239 CONDUIT    420.97     0  03:15      1.25    1.32    1.00
  WS02006242WS02006240 CONDUIT    417.29     0  03:14      1.16    1.66    1.00
  WS02006243WS02006242 CONDUIT    418.68     0  03:14      1.43    0.89    1.00
  WS02006245WS02006243 CONDUIT    431.65     0  01:54      1.44    1.28    1.00
  WS02006247WS02006245 CONDUIT    504.25     0  01:49      1.43    4.00    1.00
  WS02006248WS02006247 CONDUIT    481.21     0  01:52      1.45    1.05    1.00
  WS02006249WS02006248 CONDUIT    538.39     0  01:52      1.44    2.95    1.00
  WS02006251WS02006249 CONDUIT    520.89     0  01:56      1.99    1.50    1.00
  WS02006252WS02006251 CONDUIT    411.21     0  01:52     25.60    1.51    1.00
  WS02006256WS02006235 CONDUIT    288.91     0  00:00      4.23    3.06    1.00
  WSF200WS02003060     CONDUIT    531.45     0  03:05      2.06    0.12    0.28
  YS02001580YS02001583 CONDUIT     97.53     0  02:05      0.62    0.38    1.00
  YS02001583YS02001586 CONDUIT    151.45     0  02:04      0.64    0.23    1.00
  YS02001586YS02001590 CONDUIT    318.25     0  02:14      1.26    0.56    1.00
  YS02001590YS02001593 CONDUIT    317.99     0  02:14      1.12    2.00    1.00
  YS02001593YS02001596 CONDUIT    317.89     0  02:20      1.76    0.50    1.00
  YS02001596YS02001600 CONDUIT    317.89     0  02:31      1.25    0.62    1.00
  YS02001600YS02001601 CONDUIT    317.97     0  02:14      1.12    0.55    1.00
  YS02001601YS02001602 CONDUIT    510.58     0  02:37      1.81    1.84    1.00
  YS02001602YS02001605 CONDUIT    510.65     0  02:37      1.81   10.81    1.00
  YS02001605YS02001607 CONDUIT    510.70     0  02:37      1.81    2.80    1.00
  YS02001607YS02001610 CONDUIT    512.72     0  02:04      0.65    0.49    1.00
  YS02001610YS02001613 CONDUIT    513.07     0  02:04      0.65    0.59    1.00
  YS02001613YS02001616 CONDUIT    514.93     0  02:04      0.66    0.44    1.00
  YS02001616YS02001619 CONDUIT    511.66     0  02:37      0.68    0.89    1.00
  YS02001619YS02001622 CONDUIT    966.32     0  02:30      1.23    1.42    1.00
  YS02001622YS02001625 CONDUIT    966.47     0  02:30      1.23    0.52    1.00
  YS02001625YS02001629 CONDUIT    966.36     0  02:30      1.23    0.46    1.00
  YS02001629YS02163301 CONDUIT    968.24     0  02:29      1.23    1.19    1.00
  YS02001633YS02163601 CONDUIT   1383.95     0  02:08      1.76    1.45    1.00
  YS02001641YS02001644 CONDUIT   1382.74     0  02:08      1.76    4.47    1.00
  YS02001644YS02001647 CONDUIT   1796.79     0  02:08      2.29    1.06    1.00
  YS02001647YS02001649 CONDUIT   1800.69     0  02:08      2.31    0.95    1.00
  YS02001649YS02001757 CONDUIT   2020.36     0  02:08      2.58    1.23    1.00
  YS02001652YS02001649 CONDUIT    840.37     0  02:12      1.07    0.42    1.00
  YS02001655YS02001652 CONDUIT    840.34     0  02:12      1.25    0.41    1.00
  YS02001658YS02001655 CONDUIT    840.43     0  02:12      1.86    0.36    1.00
  YS02001661YS02001658 CONDUIT    839.88     0  02:12      2.32    0.33    1.00
  YS02001664YS02001661 CONDUIT    821.00     0  02:12      2.32    0.26    0.82
  YS02001745YS02001748 CONDUIT    584.72     0  02:10      2.19    0.23    0.92
  YS02001748YS02001751 CONDUIT    532.90     0  02:13      1.70    0.27    1.00
  YS02001751YS02001754 CONDUIT    532.47     0  02:13      1.35    0.26    1.00
  YS02001754YS02001757 CONDUIT    532.70     0  02:13      0.68    0.21    1.00
  YS02001757CaochengTiaoxuchi CONDUIT   3350.26     0  02:17      6.97    1.45    0.82
  YS02001759YS02001757 CONDUIT   1340.16     0  02:13      1.71    0.95    1.00
  YS02001762YS02001759 CONDUIT    798.14     0  02:17      1.02    0.92    1.00
  YS02001765YS02001762 CONDUIT    797.54     0  02:17      1.02    0.75    1.00
  YS02001767YS02001765 CONDUIT    796.97     0  02:17      1.01    1.00    1.00
  YS02001770YS02001767 CONDUIT    795.86     0  02:17      1.01    3.15    1.00
  YS02001774YS02001770 CONDUIT    357.93     0  02:13      0.46    0.23    1.00
  YS02001779YS02001774 CONDUIT    358.01     0  02:13      0.46    0.18    1.00
  YS02001783YS02001784 CONDUIT   1164.62     0  02:12      2.32    1.61    1.00
  YS02001784YS02001785 CONDUIT   1165.43     0  02:12      2.32    2.71    1.00
  YS02001786YS02001788 CONDUIT   1165.40     0  02:12      2.49    2.25    0.89
  YS02001788YS02001790 CONDUIT   1178.41     0  02:12      2.73    0.87    0.84
  YS02001790YS02001791 CONDUIT   1283.55     0  02:15      3.42    1.40    0.70
  YS02001791YS02001793 CONDUIT   1236.41     0  02:16      6.35    0.53    0.43
  YS02001793JiankangQianchi CONDUIT   1282.19     0  02:16     24.26    0.10    0.50
  YS02001882YS02001884 CONDUIT     37.47     0  02:06      0.11    0.04    1.00
  YS02001884YS02001887 CONDUIT     72.99     0  02:06      0.09    0.10    1.00
  YS02001887YS02001890 CONDUIT    771.18     0  02:13      0.98    1.32    1.00
  YS02001890YS02001895 CONDUIT    517.02     0  02:15      0.66    0.24    1.00
  YS02001895YS02001898 CONDUIT    517.24     0  02:17      0.66    0.90    1.00
  YS02001898YS02001901 CONDUIT    517.20     0  02:17      0.66    0.33    1.00
  YS02001901YS02001904 CONDUIT    517.11     0  02:17      0.66    0.80    1.00
  YS02001904YS02001907 CONDUIT    517.03     0  02:16      0.66    0.18    1.00
  YS02001907YS02006553 CONDUIT    798.51     0  02:27      0.89    0.94    1.00
  YS02001910YS02001907 CONDUIT   1313.42     0  02:13      1.67    0.74    1.00
  YS02001915YS02001910 CONDUIT   1313.70     0  02:13      1.67    0.65    1.00
  YS02001918YS02001915 CONDUIT    457.74     0  02:13      0.58    0.25    1.00
  YS02001920YS02001918 CONDUIT    457.36     0  02:13      0.66    0.44    1.00
  YS02001923YS02001920 CONDUIT    454.68     0  02:13      0.69    0.20    1.00
  YS02001926YS02001923 CONDUIT    450.80     0  02:13      0.96    0.64    1.00
  YS02001929YS02001926 CONDUIT    450.24     0  02:13      1.12    0.21    1.00
  YS02006553YS02006556 CONDUIT    798.66     0  02:27      1.02    0.68    1.00
  YS02006556YS02006558 CONDUIT    799.08     0  02:27      1.02    0.63    1.00
  YS02006558YS02006561 CONDUIT   1166.61     0  02:08      4.13    2.58    1.00
  YS02006561YS02001783 CONDUIT   1164.50     0  02:13      2.32    0.60    1.00
  YS02163301YS02001633 CONDUIT    968.43     0  02:30      1.23    0.91    1.00
  YS02163601YS02164001 CONDUIT   1384.06     0  02:08      1.76    1.23    1.00
  YS02164001YS02001641 CONDUIT   1383.78     0  02:08      1.76    1.89    1.00
  CC-R1                PUMP       683.00     0  00:00              1.00
  CC-R2                PUMP       683.00     0  00:00              1.00
  CC-S1                PUMP       200.00     0  00:00              1.00
  CC-S2                PUMP       200.00     0  00:00              1.00
  JK-R1                PUMP      1000.00     0  00:00              1.00
  JK-R2                PUMP      1000.00     0  00:00              1.00
  JK-S                 PUMP       300.00     0  00:00              1.00
  
  
  ***************************
  Flow Classification Summary
  ***************************
  
  -------------------------------------------------------------------------------------
                      Adjusted    ---------- Fraction of Time in Flow Class ---------- 
                       /Actual         Up    Down  Sub   Sup   Up    Down  Norm  Inlet 
  Conduit               Length    Dry  Dry   Dry   Crit  Crit  Crit  Crit  Ltd   Ctrl  
  -------------------------------------------------------------------------------------
  1                       1.00   0.00  0.00  0.00  0.00  1.00  0.00  0.00  0.37  0.00
  WS02003060WS02003069    1.00   0.00  0.00  0.00  0.98  0.02  0.00  0.00  0.74  0.00
  WS02003066WSF200        1.00   0.05  0.00  0.00  0.00  0.95  0.00  0.00  0.87  0.00
  WS02003067WS02003066    1.00   0.05  0.00  0.00  0.95  0.00  0.00  0.00  0.00  0.00
  WS02003069WS02003072    1.00   0.00  0.00  0.00  0.99  0.01  0.00  0.00  0.76  0.00
  WS02003072WS02003073    1.00   0.00  0.00  0.00  0.00  0.00  0.00  1.00  0.00  0.00
  WS02004401WS02004402    1.00   0.02  0.00  0.00  0.98  0.00  0.00  0.00  0.00  0.00
  WS02004402WS02004403    1.00   0.02  0.00  0.00  0.98  0.00  0.00  0.00  0.00  0.00
  WS02004403WS02004404    1.00   0.00  0.03  0.00  0.97  0.00  0.00  0.00  0.00  0.00
  WS02004404WS02004405    1.00   0.00  0.00  0.00  1.00  0.00  0.00  0.00  0.01  0.00
  WS02004405WS02004406    1.00   0.00  0.00  0.00  1.00  0.00  0.00  0.00  0.00  0.00
  WS02004406WS02004407    1.00   0.00  0.03  0.00  0.97  0.00  0.00  0.00  0.00  0.00
  WS02004407WS02004409    1.00   0.03  0.00  0.00  0.95  0.01  0.00  0.00  0.95  0.00
  WS02004409WS02004410    1.00   0.03  0.00  0.00  0.96  0.00  0.00  0.00  0.00  0.00
  WS02004410WS02004411    1.00   0.04  0.00  0.00  0.96  0.00  0.00  0.00  0.00  0.00
  WS02004411WS02004412    1.00   0.04  0.00  0.00  0.96  0.00  0.00  0.00  0.00  0.00
  WS02004412WS02004413    1.00   0.04  0.00  0.00  0.96  0.00  0.00  0.00  0.00  0.00
  WS02004413WS02003067    1.00   0.04  0.01  0.00  0.00  0.00  0.95  0.00  0.00  0.00
  WS02006109WS02006110    1.00   0.00  0.01  0.00  0.98  0.00  0.01  0.00  0.00  0.00
  WS02006110WS02006113    1.00   0.01  0.01  0.00  0.98  0.00  0.00  0.00  0.00  0.00
  WS02006111WS02006112    1.00   0.02  0.00  0.00  0.98  0.00  0.00  0.00  0.98  0.00
  WS02006112WS02006115    1.00   0.02  0.00  0.00  0.97  0.00  0.00  0.00  0.00  0.00
  WS02006113WS02006111    1.00   0.02  0.00  0.00  0.00  0.98  0.00  0.00  0.14  0.00
  WS02006115WS02006116    1.00   0.02  0.00  0.00  0.97  0.00  0.00  0.01  0.00  0.00
  WS02006116WS02004401    1.00   0.02  0.00  0.00  0.98  0.00  0.00  0.00  0.00  0.00
  WS02006228WS02006109    1.00   0.00  0.00  0.00  1.00  0.00  0.00  0.00  0.01  0.00
  WS02006229WS02006228    1.00   0.00  0.00  0.00  0.99  0.00  0.00  0.01  0.00  0.00
  WS02006230WS02006229    1.00   0.00  0.00  0.00  0.99  0.00  0.00  0.01  0.03  0.00
  WS02006231WS02006230    1.00   0.00  0.00  0.00  0.25  0.00  0.75  0.00  0.00  0.00
  WS02006232WS02006231    1.00   0.00  0.00  0.00  0.99  0.00  0.01  0.00  0.00  0.00
  WS02006234WS02006232    1.00   0.00  0.00  0.00  1.00  0.00  0.00  0.00  0.02  0.00
  WS02006235WS02006234    1.00   0.00  0.00  0.00  0.94  0.00  0.06  0.00  0.00  0.00
  WS02006238WS02006235    1.00   0.00  0.00  0.00  1.00  0.00  0.00  0.00  0.01  0.00
  WS02006239WS02006238    1.00   0.00  0.00  0.00  1.00  0.00  0.00  0.00  0.07  0.00
  WS02006240WS02006239    1.00   0.00  0.00  0.00  0.91  0.00  0.00  0.09  0.22  0.00
  WS02006242WS02006240    1.00   0.00  0.00  0.00  0.89  0.00  0.11  0.00  0.00  0.00
  WS02006243WS02006242    1.00   0.00  0.00  0.00  0.98  0.00  0.00  0.02  0.58  0.00
  WS02006245WS02006243    1.00   0.00  0.00  0.00  0.70  0.00  0.00  0.30  0.02  0.00
  WS02006247WS02006245    1.00   0.00  0.00  0.00  0.97  0.00  0.00  0.03  0.00  0.00
  WS02006248WS02006247    1.00   0.00  0.00  0.00  0.98  0.00  0.00  0.02  0.33  0.00
  WS02006249WS02006248    1.00   0.00  0.00  0.00  0.44  0.00  0.56  0.00  0.00  0.00
  WS02006251WS02006249    1.00   0.00  0.00  0.00  0.99  0.01  0.00  0.00  0.57  0.00
  WS02006252WS02006251    1.00   0.01  0.63  0.00  0.17  0.00  0.19  0.00  0.00  0.00
  WS02006256WS02006235    1.00   0.00  0.00  0.00  0.96  0.04  0.00  0.00  0.01  0.00
  WSF200WS02003060        1.00   0.00  0.05  0.00  0.29  0.66  0.00  0.00  0.66  0.00
  YS02001580YS02001583    1.00   0.26  0.56  0.00  0.18  0.00  0.00  0.00  0.65  0.00
  YS02001583YS02001586    1.00   0.41  0.35  0.00  0.24  0.00  0.00  0.00  0.65  0.00
  YS02001586YS02001590    1.00   0.13  0.00  0.00  0.43  0.04  0.00  0.40  0.38  0.00
  YS02001590YS02001593    1.00   0.13  0.01  0.00  0.10  0.00  0.76  0.00  0.00  0.00
  YS02001593YS02001596    1.00   0.14  0.00  0.00  0.12  0.01  0.00  0.73  0.02  0.00
  YS02001596YS02001600    1.00   0.14  0.00  0.00  0.19  0.01  0.00  0.66  0.05  0.00
  YS02001600YS02001601    1.00   0.13  0.01  0.00  0.86  0.00  0.00  0.00  0.61  0.00
  YS02001601YS02001602    1.00   0.13  0.01  0.00  0.86  0.00  0.00  0.00  0.00  0.00
  YS02001602YS02001605    1.00   0.14  0.00  0.00  0.86  0.00  0.00  0.00  0.00  0.00
  YS02001605YS02001607    1.00   0.14  0.00  0.00  0.86  0.00  0.00  0.00  0.00  0.00
  YS02001607YS02001610    1.00   0.13  0.01  0.00  0.86  0.00  0.00  0.00  0.02  0.00
  YS02001610YS02001613    1.00   0.13  0.00  0.00  0.87  0.00  0.00  0.00  0.01  0.00
  YS02001613YS02001616    1.00   0.13  0.00  0.00  0.87  0.00  0.00  0.00  0.01  0.00
  YS02001616YS02001619    1.00   0.13  0.00  0.00  0.87  0.00  0.00  0.00  0.00  0.00
  YS02001619YS02001622    1.00   0.13  0.00  0.00  0.87  0.00  0.00  0.00  0.28  0.00
  YS02001622YS02001625    1.00   0.13  0.00  0.00  0.87  0.00  0.00  0.00  0.05  0.00
  YS02001625YS02001629    1.00   0.13  0.05  0.00  0.15  0.00  0.67  0.00  0.00  0.00
  YS02001629YS02163301    1.00   0.16  0.01  0.00  0.83  0.00  0.00  0.00  0.00  0.00
  YS02001633YS02163601    1.00   0.00  0.01  0.00  0.99  0.00  0.00  0.00  0.15  0.00
  YS02001641YS02001644    1.00   0.00  0.01  0.00  0.99  0.00  0.00  0.00  0.00  0.00
  YS02001644YS02001647    1.00   0.00  0.18  0.00  0.82  0.00  0.00  0.00  0.00  0.00
  YS02001647YS02001649    1.00   0.00  0.18  0.00  0.50  0.32  0.00  0.00  0.56  0.00
  YS02001649YS02001757    1.00   0.00  0.00  0.00  0.84  0.16  0.00  0.00  0.74  0.00
  YS02001652YS02001649    1.00   0.00  0.00  0.00  0.96  0.04  0.00  0.00  0.75  0.00
  YS02001655YS02001652    1.00   0.00  0.00  0.00  0.17  0.02  0.00  0.82  0.09  0.00
  YS02001658YS02001655    1.00   0.00  0.14  0.00  0.59  0.26  0.00  0.00  0.75  0.00
  YS02001661YS02001658    1.00   0.14  0.00  0.00  0.43  0.42  0.00  0.00  0.72  0.00
  YS02001664YS02001661    1.00   0.13  0.00  0.00  0.75  0.13  0.00  0.00  0.85  0.00
  YS02001745YS02001748    1.00   0.00  0.00  0.00  0.03  0.01  0.00  0.96  0.02  0.00
  YS02001748YS02001751    1.00   0.00  0.00  0.00  0.75  0.25  0.00  0.00  0.81  0.00
  YS02001751YS02001754    1.00   0.00  0.00  0.00  0.10  0.01  0.00  0.88  0.05  0.00
  YS02001754YS02001757    1.00   0.00  0.00  0.00  1.00  0.00  0.00  0.00  0.86  0.00
  YS02001757CaochengTiaoxuchi    1.00   0.00  0.00  0.00  0.04  0.96  0.00  0.00  0.09  0.00
  YS02001759YS02001757    1.00   0.00  0.00  0.00  1.00  0.00  0.00  0.00  0.66  0.00
  YS02001762YS02001759    1.00   0.00  0.00  0.00  1.00  0.00  0.00  0.00  0.06  0.00
  YS02001765YS02001762    1.00   0.00  0.00  0.00  1.00  0.00  0.00  0.00  0.73  0.00
  YS02001767YS02001765    1.00   0.00  0.00  0.00  1.00  0.00  0.00  0.00  0.00  0.00
  YS02001770YS02001767    1.00   0.00  0.00  0.00  1.00  0.00  0.00  0.00  0.00  0.00
  YS02001774YS02001770    1.00   0.00  0.13  0.00  0.70  0.00  0.16  0.00  0.03  0.00
  YS02001779YS02001774    1.00   0.00  0.00  0.00  1.00  0.00  0.00  0.00  0.80  0.00
  YS02001783YS02001784    1.00   0.00  0.19  0.00  0.81  0.00  0.00  0.00  0.55  0.00
  YS02001784YS02001785    1.00   0.00  0.00  0.00  1.00  0.00  0.00  0.00  0.18  0.00
  YS02001786YS02001788    1.00   0.00  0.00  0.00  0.79  0.21  0.00  0.00  0.00  0.00
  YS02001788YS02001790    1.00   0.00  0.00  0.00  0.22  0.78  0.00  0.00  0.81  0.00
  YS02001790YS02001791    1.00   0.00  0.00  0.00  0.01  0.99  0.00  0.00  0.15  0.00
  YS02001791YS02001793    1.00   0.00  0.00  0.00  0.00  1.00  0.00  0.00  0.01  0.00
  YS02001793JiankangQianchi    1.00   0.00  0.00  0.00  0.00  1.00  0.00  0.00  0.21  0.00
  YS02001882YS02001884    1.00   0.16  0.01  0.00  0.83  0.00  0.00  0.00  0.00  0.00
  YS02001884YS02001887    1.00   0.06  0.05  0.00  0.89  0.00  0.00  0.00  0.00  0.00
  YS02001887YS02001890    1.00   0.00  0.00  0.00  0.97  0.00  0.03  0.00  0.00  0.00
  YS02001890YS02001895    1.00   0.00  0.17  0.00  0.83  0.00  0.00  0.00  0.00  0.00
  YS02001895YS02001898    1.00   0.17  0.00  0.00  0.81  0.00  0.02  0.00  0.00  0.00
  YS02001898YS02001901    1.00   0.17  0.00  0.00  0.83  0.00  0.00  0.00  0.01  0.00
  YS02001901YS02001904    1.00   0.17  0.00  0.00  0.83  0.00  0.00  0.00  0.00  0.00
  YS02001904YS02001907    1.00   0.00  0.17  0.00  0.83  0.00  0.00  0.00  0.00  0.00
  YS02001907YS02006553    1.00   0.00  0.02  0.00  0.98  0.00  0.00  0.00  0.00  0.00
  YS02001910YS02001907    1.00   0.00  0.00  0.00  0.97  0.00  0.00  0.03  0.12  0.00
  YS02001915YS02001910    1.00   0.00  0.00  0.00  0.96  0.04  0.00  0.00  0.17  0.00
  YS02001918YS02001915    1.00   0.00  0.01  0.00  0.98  0.02  0.00  0.00  0.76  0.00
  YS02001920YS02001918    1.00   0.00  0.01  0.00  0.99  0.00  0.00  0.00  0.00  0.00
  YS02001923YS02001920    1.00   0.00  0.00  0.00  1.00  0.00  0.00  0.00  0.93  0.00
  YS02001926YS02001923    1.00   0.00  0.07  0.00  0.05  0.00  0.87  0.00  0.00  0.00
  YS02001929YS02001926    1.00   0.00  0.13  0.00  0.87  0.00  0.00  0.00  0.83  0.00
  YS02006553YS02006556    1.00   0.01  0.00  0.00  0.99  0.00  0.00  0.00  0.03  0.00
  YS02006556YS02006558    1.00   0.00  0.00  0.00  1.00  0.00  0.00  0.00  0.00  0.00
  YS02006558YS02006561    1.00   0.19  0.00  0.00  0.05  0.76  0.00  0.00  0.19  0.00
  YS02006561YS02001783    1.00   0.19  0.00  0.00  0.08  0.73  0.00  0.00  0.69  0.00
  YS02163301YS02001633    1.00   0.00  0.16  0.00  0.84  0.00  0.00  0.00  0.00  0.00
  YS02163601YS02164001    1.00   0.00  0.08  0.00  0.92  0.00  0.00  0.00  0.00  0.00
  YS02164001YS02001641    1.00   0.01  0.08  0.00  0.92  0.00  0.00  0.00  0.06  0.00
  
  
  *************************
  Conduit Surcharge Summary
  *************************
  
  ----------------------------------------------------------------------------
                                                           Hours        Hours 
                         --------- Hours Full --------   Above Full   Capacity
  Conduit                Both Ends  Upstream  Dnstream   Normal Flow   Limited
  ----------------------------------------------------------------------------
  WS02003072WS02003073        0.01      0.01      0.01      1.46         0.01
  WS02004404WS02004405        0.01      0.01      0.01      3.06         0.01
  WS02004405WS02004406        0.01      0.01      0.01      0.69         0.01
  WS02006109WS02006110        0.09      0.09      1.85      0.16         0.01
  WS02006110WS02006113        0.01      0.01      1.81      0.01         0.01
  WS02006111WS02006112        0.01      0.01      2.05      0.01         0.01
  WS02006112WS02006115        0.01      0.01      1.10      0.01         0.01
  WS02006228WS02006109        1.75      1.85      1.75      2.36         1.75
  WS02006229WS02006228        1.73      1.76      1.73      2.12         1.73
  WS02006230WS02006229        1.94      2.05      1.94      4.17         1.94
  WS02006231WS02006230        0.08      0.08      1.24      3.40         0.01
  WS02006232WS02006231        0.98      0.98      1.86      1.14         0.01
  WS02006234WS02006232        1.68      1.68      1.86      0.74         0.71
  WS02006235WS02006234        1.39      1.43      1.66      3.09         0.23
  WS02006238WS02006235        1.74      1.74      1.88      0.01         0.09
  WS02006239WS02006238        1.77      1.85      1.80      1.82         1.14
  WS02006240WS02006239        1.67      1.73      1.71      1.81         1.10
  WS02006242WS02006240        1.68      1.68      1.93      2.12         0.03
  WS02006243WS02006242        1.69      1.69      1.84      0.01         0.30
  WS02006245WS02006243        1.62      1.65      1.64      1.84         0.99
  WS02006247WS02006245        1.62      1.70      1.62      2.52         1.39
  WS02006248WS02006247        1.61      1.63      1.66      0.01         0.51
  WS02006249WS02006248        1.59      1.60      1.64      2.42         0.02
  WS02006251WS02006249        1.62      1.67      1.64      2.25         1.45
  WS02006252WS02006251        2.44      2.45      2.44      2.45         0.01
  WS02006256WS02006235        2.30      3.14      5.80      1.73         0.05
  YS02001580YS02001583        0.53      0.53      0.55      0.01         0.01
  YS02001583YS02001586        0.54      0.54      0.63      0.01         0.01
  YS02001586YS02001590        0.63      0.63      0.70      0.01         0.01
  YS02001590YS02001593        0.70      0.70      0.72      0.75         0.01
  YS02001593YS02001596        0.71      0.71      0.80      0.01         0.01
  YS02001596YS02001600        0.86      0.86      0.96      0.01         0.01
  YS02001600YS02001601        1.03      1.03      1.32      0.01         0.01
  YS02001601YS02001602        1.21      1.21      1.36      0.99         0.01
  YS02001602YS02001605        1.16      1.16      1.21      2.21         0.01
  YS02001605YS02001607        1.11      1.16      1.11      1.28         1.11
  YS02001607YS02001610        0.63      0.63      0.66      0.01         0.01
  YS02001610YS02001613        0.62      0.62      0.66      0.01         0.01
  YS02001613YS02001616        0.58      0.58      0.62      0.01         0.01
  YS02001616YS02001619        0.57      0.57      0.58      0.01         0.01
  YS02001619YS02001622        0.56      0.57      0.56      0.74         0.54
  YS02001622YS02001625        0.56      0.56      0.75      0.01         0.01
  YS02001625YS02001629        0.46      0.46      0.75      0.01         0.01
  YS02001629YS02163301        0.73      0.73      0.74      0.35         0.33
  YS02001633YS02163601        0.76      0.76      0.79      0.45         0.46
  YS02001641YS02001644        0.57      0.64      0.57      1.40         0.56
  YS02001644YS02001647        0.33      0.33      0.57      0.04         0.01
  YS02001647YS02001649        0.33      0.33      0.36      0.01         0.01
  YS02001649YS02001757        0.35      0.36      0.35      0.35         0.24
  YS02001652YS02001649        0.28      0.28      0.36      0.01         0.01
  YS02001655YS02001652        0.20      0.20      0.27      0.01         0.01
  YS02001658YS02001655        0.14      0.14      0.20      0.01         0.01
  YS02001661YS02001658        0.01      0.01      0.14      0.01         0.01
  YS02001664YS02001661        0.01      0.01      0.05      0.01         0.01
  YS02001745YS02001748        0.01      0.01      0.08      0.01         0.01
  YS02001748YS02001751        0.12      0.12      0.16      0.01         0.01
  YS02001751YS02001754        0.16      0.16      0.20      0.01         0.01
  YS02001754YS02001757        0.22      0.22      0.35      0.01         0.01
  YS02001757CaochengTiaoxuchi        0.01      0.35      0.01      0.45         0.01
  YS02001759YS02001757        0.30      0.30      0.35      0.01         0.02
  YS02001762YS02001759        0.29      0.29      0.30      0.01         0.02
  YS02001765YS02001762        0.28      0.28      0.29      0.01         0.01
  YS02001767YS02001765        0.27      0.27      0.28      0.01         0.04
  YS02001770YS02001767        0.27      0.27      0.27      0.52         0.26
  YS02001774YS02001770        0.26      0.26      0.29      0.01         0.01
  YS02001779YS02001774        0.22      0.22      0.29      0.01         0.01
  YS02001783YS02001784        0.45      0.48      0.45      0.62         0.45
  YS02001784YS02001785        0.35      0.45      0.35      0.85         0.35
  YS02001786YS02001788        0.01      0.35      0.01      0.73         0.01
  YS02001790YS02001791        0.01      0.01      0.01      0.44         0.01
  YS02001882YS02001884        0.43      0.43      0.44      0.01         0.01
  YS02001884YS02001887        0.46      0.46      0.47      0.01         0.01
  YS02001887YS02001890        0.48      0.48      0.49      0.09         0.01
  YS02001890YS02001895        0.42      0.42      0.51      0.01         0.01
  YS02001895YS02001898        0.41      0.41      0.42      0.01         0.01
  YS02001898YS02001901        0.42      0.42      0.46      0.01         0.01
  YS02001901YS02001904        0.45      0.45      0.46      0.01         0.01
  YS02001904YS02001907        0.45      0.45      0.71      0.01         0.01
  YS02001907YS02006553        0.85      0.85      0.92      0.01         0.01
  YS02001910YS02001907        0.51      0.51      0.69      0.01         0.01
  YS02001915YS02001910        0.42      0.42      0.51      0.01         0.01
  YS02001918YS02001915        0.34      0.34      0.42      0.01         0.01
  YS02001920YS02001918        0.34      0.34      0.36      0.01         0.01
  YS02001923YS02001920        0.31      0.31      0.36      0.01         0.01
  YS02001926YS02001923        0.05      0.05      0.09      0.01         0.01
  YS02001929YS02001926        0.01      0.01      0.09      0.01         0.01
  YS02006553YS02006556        0.60      0.60      0.71      0.01         0.01
  YS02006556YS02006558        0.65      0.65      0.73      0.01         0.01
  YS02006558YS02006561        0.37      0.59      0.37      0.80         0.37
  YS02006561YS02001783        0.31      0.31      0.48      0.01         0.01
  YS02163301YS02001633        0.74      0.74      0.78      0.01         0.02
  YS02163601YS02164001        0.66      0.66      0.79      0.29         0.01
  YS02164001YS02001641        0.64      0.66      0.64      0.70         0.50
  
  
  ***************
  Pumping Summary
  ***************
  
  ---------------------------------------------------------------------------------------------------------
                                                  Min       Avg       Max     Total     Power    % Time Off
                        Percent   Number of      Flow      Flow      Flow    Volume     Usage    Pump Curve
  Pump                 Utilized   Start-Ups       LPS       LPS       LPS  10^6 ltr     Kw-hr    Low   High
  ---------------------------------------------------------------------------------------------------------
  CC-R1                   22.52           8      0.00    683.00    683.00     4.383     70.52    0.0  100.0
  CC-R2                   22.52           8      0.00    683.00    683.00     4.383     70.52    0.0  100.0
  CC-S1                   30.93          19      0.00    200.00    200.00     1.763     14.73    0.0   54.2
  CC-S2                   30.93          19      0.00    200.00    200.00     1.763     14.73    0.0   54.2
  JK-R1                    4.83         370      0.00    998.10   1000.00     1.373      3.38    0.0    0.0
  JK-R2                    4.83         370      0.00    998.10   1000.00     1.373      3.38    0.0    0.0
  JK-S                    18.52         629      0.00    296.54    300.00     1.531     35.11    0.0    0.0
  

  Analysis begun on:  Thu Jan 16 14:21:18 2025
  Analysis ended on:  Thu Jan 16 14:21:19 2025
  Total elapsed time: 00:00:01