
  EPA STORM WATER MANAGEMENT MODEL - VERSION 5.2 (Build 5.2.4)
  PYSWMM TOOLKIT API - VERSION v1.0 (2023-11-27)
  ------------------------------------------------------------

  WARNING 04: minimum elevation drop used for Conduit WS02004404WS02004405
  WARNING 03: negative offset ignored for Link YS02001904YS02001907
  
  ****************
  Analysis Options
  ****************
  Flow Units ............... LPS
  Process Models:
    Rainfall/Runoff ........ YES
    RDII ................... NO
    Snowmelt ............... NO
    Groundwater ............ NO
    Flow Routing ........... YES
    Ponding Allowed ........ NO
    Water Quality .......... NO
  Infiltration Method ...... HORTON
  Flow Routing Method ...... DYNWAVE
  Surcharge Method ......... EXTRAN
  Starting Date ............ 08/28/2015 08:00:00
  Ending Date .............. 08/28/2015 16:00:00
  Antecedent Dry Days ...... 8.0
  Report Time Step ......... 00:01:00
  Wet Time Step ............ 00:01:00
  Dry Time Step ............ 00:01:00
  Routing Time Step ........ 30.00 sec
  Variable Time Step ....... YES
  Maximum Trials ........... 8
  Number of Threads ........ 4
  Head Tolerance ........... 0.001500 m
  
  
  **************************        Volume         Depth
  Runoff Quantity Continuity     hectare-m            mm
  **************************     ---------       -------
  Total Precipitation ......         2.775        83.673
  Evaporation Loss .........         0.000         0.000
  Infiltration Loss ........         0.104         3.138
  Surface Runoff ...........         2.639        79.552
  Final Storage ............         0.033         0.998
  Continuity Error (%) .....        -0.018
  
  
  **************************        Volume        Volume
  Flow Routing Continuity        hectare-m      10^6 ltr
  **************************     ---------     ---------
  Dry Weather Inflow .......         0.025         0.248
  Wet Weather Inflow .......         2.638        26.384
  Groundwater Inflow .......         0.000         0.000
  RDII Inflow ..............         0.000         0.000
  External Inflow ..........         0.083         0.825
  External Outflow .........         2.088        20.880
  Flooding Loss ............         0.927         9.268
  Evaporation Loss .........         0.000         0.000
  Exfiltration Loss ........         0.000         0.000
  Initial Stored Volume ....         0.243         2.431
  Final Stored Volume ......         0.042         0.416
  Continuity Error (%) .....        -2.260
  
  
  *************************
  Highest Continuity Errors
  *************************
  Node WS02006256 (-14.92%)
  Node JK-storage (-7.76%)
  Node YS02001884 (5.20%)
  Node YS02001583 (-3.42%)
  
  
  ***************************
  Time-Step Critical Elements
  ***************************
  Link WS02006238WS02006235 (34.75%)
  Link YS02001793JiankangQianchi (33.21%)
  Link WS02004404WS02004405 (7.14%)
  Link WS02003066WSF200 (6.38%)
  Link WS02006235WS02006234 (2.75%)
  
  
  ********************************
  Highest Flow Instability Indexes
  ********************************
  Link WS02006229WS02006228 (50)
  Link WS02006256WS02006235 (42)
  Link WS02006252WS02006251 (42)
  Link WS02006113WS02006111 (39)
  Link WS02006228WS02006109 (36)
  
  
  *********************************
  Most Frequent Nonconverging Nodes
  *********************************
  Node CC-1 (52.93%)
  Node CC-2 (52.93%)
  Node JK-1 (52.93%)
  Node JK-2 (52.93%)
  Node WSC (52.93%)
  
  
  *************************
  Routing Time Step Summary
  *************************
  Minimum Time Step           :     0.02 sec
  Average Time Step           :     2.48 sec
  Maximum Time Step           :     6.43 sec
  % of Time in Steady State   :     0.00
  Average Iterations per Step :     5.65
  % of Steps Not Converging   :    52.93
  Time Step Frequencies       :
     30.000 - 13.228 sec      :     0.00 %
     13.228 -  5.833 sec      :     4.73 %
      5.833 -  2.572 sec      :    34.68 %
      2.572 -  1.134 sec      :    42.68 %
      1.134 -  0.500 sec      :    17.91 %
  
  
  ***************************
  Subcatchment Runoff Summary
  ***************************
  
  ------------------------------------------------------------------------------------------------------------------------------
                            Total      Total      Total      Total     Imperv       Perv      Total       Total     Peak  Runoff
                           Precip      Runon       Evap      Infil     Runoff     Runoff     Runoff      Runoff   Runoff   Coeff
  Subcatchment                 mm         mm         mm         mm         mm         mm         mm    10^6 ltr      LPS
  ------------------------------------------------------------------------------------------------------------------------------
  sub60                     83.67       0.00       0.00       1.87      72.43       8.17      80.60        1.06   668.44   0.963
  sub61                     83.67       0.00       0.00       2.71      68.32      11.51      79.83        1.46   930.36   0.954
  sub62                     83.67       0.00       0.00       1.24      75.69       5.45      81.14        2.22  1313.71   0.970
  sub63                     83.67       0.00       0.00       5.02      58.44      19.24      77.68        1.76  1067.83   0.928
  sub64                     83.67       0.00       0.00       2.54      69.91      10.02      79.93        1.92  1096.00   0.955
  sub65                     83.67       0.00       0.00       2.20      71.54       8.68      80.22        2.21  1231.52   0.959
  sub66                     83.67       0.00       0.00       6.26      58.33      18.01      76.34        3.56  1688.11   0.912
  sub67                     83.67       0.00       0.00       1.19      75.74       5.50      81.24        1.51   993.68   0.971
  sub68                     83.67       0.00       0.00       2.25      70.77       9.47      80.24        2.21  1347.06   0.959
  sub69                     83.67       0.00       0.00       2.03      71.01      10.52      81.53        3.02  1638.08   0.974
  sub70                     83.67       0.00       0.00       6.82      55.05      21.63      76.69        2.22   953.88   0.917
  sub71                     83.67       0.00       0.00       1.28      75.65       5.42      81.06        2.12  1184.54   0.969
  sub72                     83.67       0.00       0.00       1.14      76.41       4.72      81.13        1.12   582.65   0.970
  
  
  ******************
  Node Depth Summary
  ******************
  
  ---------------------------------------------------------------------------------
                                 Average  Maximum  Maximum  Time of Max    Reported
                                   Depth    Depth      HGL   Occurrence   Max Depth
  Node                 Type       Meters   Meters   Meters  days hr:min      Meters
  ---------------------------------------------------------------------------------
  WS02003060           JUNCTION     0.25     0.38     5.31     0  03:12        0.38
  WS02003066           JUNCTION     0.20     0.30     5.85     0  03:13        0.30
  WS02003067           JUNCTION     0.51     0.70     6.02     0  03:11        0.70
  WS02003069           JUNCTION     0.28     0.43     5.01     0  03:13        0.43
  WS02003072           JUNCTION     0.34     0.50     4.87     0  03:14        0.50
  WS02003073           JUNCTION     0.19     0.30     4.36     0  03:15        0.30
  WS02004401           JUNCTION     0.62     0.87     6.87     0  03:09        0.87
  WS02004402           JUNCTION     0.65     0.90     6.86     0  02:11        0.90
  WS02004403           JUNCTION     0.67     0.92     6.85     0  02:11        0.91
  WS02004404           JUNCTION     0.75     1.16     7.01     0  02:11        0.99
  WS02004405           JUNCTION     0.73     0.96     6.81     0  03:09        0.96
  WS02004406           JUNCTION     0.74     0.95     6.78     0  03:09        0.95
  WS02004407           JUNCTION     0.19     0.29     6.61     0  03:09        0.29
  WS02004409           JUNCTION     0.42     0.66     6.43     0  03:13        0.66
  WS02004410           JUNCTION     0.44     0.68     6.40     0  03:12        0.68
  WS02004411           JUNCTION     0.46     0.69     6.37     0  03:12        0.69
  WS02004412           JUNCTION     0.48     0.69     6.33     0  03:12        0.69
  WS02004413           JUNCTION     0.63     0.85     6.32     0  03:12        0.85
  WS02006109           JUNCTION     0.70     1.04     7.65     0  03:06        1.01
  WS02006110           JUNCTION     0.69     0.99     7.57     0  03:06        0.93
  WS02006111           JUNCTION     0.19     0.29     6.99     0  03:07        0.29
  WS02006112           JUNCTION     0.79     1.07     6.96     0  03:11        1.06
  WS02006113           JUNCTION     0.30     0.46     7.35     0  03:08        0.46
  WS02006115           JUNCTION     0.52     0.77     6.91     0  03:08        0.76
  WS02006116           JUNCTION     0.60     0.85     6.89     0  03:08        0.85
  WS02006228           JUNCTION     0.70     1.07     7.72     0  03:06        1.06
  WS02006229           JUNCTION     0.68     1.08     7.77     0  03:10        1.06
  WS02006230           JUNCTION     0.70     1.19     7.94     0  03:05        1.15
  WS02006231           JUNCTION     0.49     2.24     9.36     0  02:52        2.24
  WS02006232           JUNCTION     0.64     1.64     8.68     0  03:35        1.64
  WS02006234           JUNCTION     0.58     1.96     9.12     0  03:35        1.96
  WS02006235           JUNCTION     0.63     2.00     9.16     0  02:09        2.00
  WS02006238           JUNCTION     0.66     2.15     9.29     0  02:50        2.15
  WS02006239           JUNCTION     0.63     2.03     9.24     0  01:37        2.03
  WS02006240           JUNCTION     0.59     2.10     9.39     0  02:50        2.10
  WS02006242           JUNCTION     0.66     1.55     8.82     0  01:37        1.55
  WS02006243           JUNCTION     0.58     1.48     8.90     0  01:41        1.48
  WS02006245           JUNCTION     0.58     1.56     9.04     0  01:52        1.56
  WS02006247           JUNCTION     0.60     1.47     8.97     0  01:39        1.47
  WS02006248           JUNCTION     0.57     1.10     8.69     0  01:38        1.10
  WS02006249           JUNCTION     0.59     1.09     8.69     0  01:38        1.09
  WS02006251           JUNCTION     0.59     2.21     9.88     0  01:47        2.21
  WS02006252           JUNCTION     0.37     1.50     9.74     0  00:00        1.50
  WS02006256           JUNCTION     1.18     2.35     9.28     0  00:00        2.35
  WSF200               JUNCTION     0.18     0.29     5.52     0  03:11        0.29
  YS02001580           JUNCTION     0.18     1.05     9.59     0  01:56        0.77
  YS02001583           JUNCTION     0.22     1.14     9.64     0  01:56        0.82
  YS02001586           JUNCTION     0.34     1.13     9.30     0  01:56        1.13
  YS02001590           JUNCTION     0.46     1.40     9.26     0  01:56        1.38
  YS02001593           JUNCTION     0.39     1.32     9.18     0  01:56        1.29
  YS02001596           JUNCTION     0.53     1.68     9.10     0  01:56        1.66
  YS02001600           JUNCTION     0.64     1.87     9.00     0  01:56        1.86
  YS02001601           JUNCTION     0.83     2.06     8.90     0  01:56        2.06
  YS02001602           JUNCTION     0.72     1.87     8.77     0  02:01        1.87
  YS02001605           JUNCTION     0.66     1.78     8.68     0  02:09        1.78
  YS02001607           JUNCTION     0.61     1.65     8.49     0  02:15        1.65
  YS02001610           JUNCTION     0.65     1.68     8.48     0  02:02        1.68
  YS02001613           JUNCTION     0.61     1.68     8.52     0  02:09        1.68
  YS02001616           JUNCTION     0.54     1.61     8.52     0  02:09        1.61
  YS02001619           JUNCTION     0.52     1.61     8.54     0  02:09        1.61
  YS02001622           JUNCTION     0.51     1.59     8.49     0  02:11        1.59
  YS02001625           JUNCTION     0.75     1.78     8.38     0  02:02        1.78
  YS02001629           JUNCTION     0.65     1.85     8.40     0  02:03        1.85
  YS02001633           JUNCTION     0.72     2.07     8.52     0  02:06        2.07
  YS02001641           JUNCTION     0.67     2.02     8.45     0  02:06        2.02
  YS02001644           JUNCTION     0.66     1.92     8.35     0  02:06        1.92
  YS02001647           JUNCTION     0.43     1.76     8.37     0  02:07        1.75
  YS02001649           JUNCTION     0.48     1.98     8.37     0  02:12        1.97
  YS02001652           JUNCTION     0.35     1.83     8.43     0  02:12        1.83
  YS02001655           JUNCTION     0.26     1.64     8.49     0  02:12        1.63
  YS02001658           JUNCTION     0.19     1.41     8.55     0  02:12        1.40
  YS02001661           JUNCTION     0.21     1.20     8.60     0  02:12        1.20
  YS02001664           JUNCTION     0.09     0.66     8.59     0  02:12        0.66
  YS02001745           JUNCTION     0.11     0.84     8.36     0  02:12        0.84
  YS02001748           JUNCTION     0.17     1.86     8.94     0  02:07        1.26
  YS02001751           JUNCTION     0.21     1.73     8.61     0  02:07        1.44
  YS02001754           JUNCTION     0.29     1.81     8.42     0  02:07        1.68
  YS02001757           JUNCTION     0.48     2.02     8.28     0  02:12        2.01
  YS02001759           JUNCTION     0.42     2.03     8.39     0  02:12        2.02
  YS02001762           JUNCTION     0.41     2.00     8.40     0  02:12        2.00
  YS02001765           JUNCTION     0.39     1.96     8.41     0  02:13        1.96
  YS02001767           JUNCTION     0.38     1.94     8.43     0  02:12        1.94
  YS02001770           JUNCTION     0.39     1.95     8.44     0  02:07        1.95
  YS02001774           JUNCTION     0.46     2.00     8.42     0  02:12        1.99
  YS02001779           JUNCTION     0.28     1.68     8.37     0  02:03        1.68
  YS02001783           JUNCTION     0.38     1.29     7.43     0  02:02        1.24
  YS02001784           JUNCTION     0.38     1.13     7.20     0  02:02        1.12
  YS02001786           JUNCTION     0.31     0.90     6.93     0  02:02        0.87
  YS02001788           JUNCTION     0.23     0.63     6.60     0  02:11        0.62
  YS02001790           JUNCTION     0.27     0.73     6.37     0  02:10        0.72
  YS02001791           JUNCTION     0.16     0.44     5.91     0  02:10        0.44
  YS02001793           JUNCTION     0.10     0.26     5.09     0  02:10        0.25
  YS02001882           JUNCTION     0.47     1.67     8.38     0  02:12        1.67
  YS02001884           JUNCTION     0.56     1.77     8.38     0  02:12        1.77
  YS02001887           JUNCTION     0.63     1.85     8.38     0  02:12        1.85
  YS02001890           JUNCTION     0.66     1.81     8.32     0  02:02        1.81
  YS02001895           JUNCTION     0.44     1.58     8.32     0  02:19        1.58
  YS02001898           JUNCTION     0.45     1.57     8.31     0  02:03        1.56
  YS02001901           JUNCTION     0.55     1.68     8.29     0  02:03        1.67
  YS02001904           JUNCTION     0.53     1.64     8.27     0  02:03        1.64
  YS02001907           JUNCTION     0.84     1.96     8.25     0  02:02        1.96
  YS02001910           JUNCTION     0.66     1.98     8.49     0  02:03        1.97
  YS02001915           JUNCTION     0.48     1.93     8.65     0  02:12        1.92
  YS02001918           JUNCTION     0.30     1.81     8.88     0  02:03        1.64
  YS02001920           JUNCTION     0.38     2.12     9.13     0  02:03        1.73
  YS02001923           JUNCTION     0.24     2.01     9.27     0  02:03        1.50
  YS02001926           JUNCTION     0.26     1.90     9.35     0  02:03        1.33
  YS02001929           JUNCTION     0.16     1.78     9.47     0  02:03        1.11
  YS02006553           JUNCTION     0.84     1.99     8.27     0  02:09        1.99
  YS02006556           JUNCTION     0.81     1.97     8.28     0  02:11        1.97
  YS02006558           JUNCTION     0.85     2.03     8.30     0  02:09        2.03
  YS02006561           JUNCTION     0.24     0.99     7.65     0  02:02        0.90
  YS02163301           JUNCTION     0.67     1.95     8.46     0  02:06        1.95
  YS02163601           JUNCTION     0.74     2.08     8.48     0  02:06        2.08
  YS02164001           JUNCTION     0.67     2.04     8.50     0  02:06        2.04
  CC-1                 OUTFALL      0.00     0.00     0.00     0  00:00        0.00
  CC-2                 OUTFALL      0.00     0.00     0.00     0  00:00        0.00
  JK-1                 OUTFALL      0.00     0.00     0.00     0  00:00        0.00
  JK-2                 OUTFALL      0.00     0.00     0.00     0  00:00        0.00
  WSC                  OUTFALL      0.19     0.30     0.97     0  03:15        0.30
  CC-storage           STORAGE      0.32     1.15     6.65     0  02:48        1.15
  JK-storage           STORAGE      0.02     2.99     3.79     0  00:00        0.68
  
  
  *******************
  Node Inflow Summary
  *******************
  
  -------------------------------------------------------------------------------------------------
                                  Maximum  Maximum                  Lateral       Total        Flow
                                  Lateral    Total  Time of Max      Inflow      Inflow     Balance
                                   Inflow   Inflow   Occurrence      Volume      Volume       Error
  Node                 Type           LPS      LPS  days hr:min    10^6 ltr    10^6 ltr     Percent
  -------------------------------------------------------------------------------------------------
  WS02003060           JUNCTION     16.53   545.03     0  03:12       0.471        5.65       0.041
  WS02003066           JUNCTION      0.00   527.76     0  03:13           0        5.18       0.029
  WS02003067           JUNCTION      0.00   527.72     0  03:13           0        5.19       0.082
  WS02003069           JUNCTION      0.32   544.85     0  03:12     0.00912        5.66       0.077
  WS02003072           JUNCTION      0.00   544.35     0  03:13           0        5.66       0.136
  WS02003073           JUNCTION      1.82   546.19     0  03:14      0.0519         5.7       0.105
  WS02004401           JUNCTION      0.00   536.55     0  03:08           0        5.29       0.201
  WS02004402           JUNCTION      0.00   539.75     0  02:13           0        5.28       0.203
  WS02004403           JUNCTION      0.00   556.37     0  02:14           0        5.27       0.199
  WS02004404           JUNCTION      0.16   557.86     0  02:12     0.00462        5.26       0.111
  WS02004405           JUNCTION      0.04   604.51     0  02:14     0.00109        5.26       0.186
  WS02004406           JUNCTION      0.00   538.14     0  02:12           0        5.25       0.409
  WS02004407           JUNCTION      0.00   533.92     0  03:09           0        5.23       0.024
  WS02004409           JUNCTION      0.00   533.00     0  03:09           0        5.22       0.056
  WS02004410           JUNCTION      0.00   530.66     0  03:10           0        5.22       0.092
  WS02004411           JUNCTION      0.00   529.97     0  03:10           0        5.22       0.114
  WS02004412           JUNCTION      0.00   528.03     0  03:10           0        5.21       0.150
  WS02004413           JUNCTION      0.00   528.19     0  03:12           0         5.2       0.275
  WS02006109           JUNCTION      1.23   546.31     0  03:06      0.0351        5.34       0.127
  WS02006110           JUNCTION      0.00   546.65     0  03:06           0        5.33       0.139
  WS02006111           JUNCTION      0.00   560.46     0  03:08           0        5.32       0.026
  WS02006112           JUNCTION      0.00   541.30     0  03:08           0        5.32       0.393
  WS02006113           JUNCTION      0.00   555.96     0  03:06           0        5.32       0.035
  WS02006115           JUNCTION      0.00   544.29     0  03:07           0         5.3       0.141
  WS02006116           JUNCTION      0.00   538.02     0  03:08           0        5.29       0.032
  WS02006228           JUNCTION      0.00   544.71     0  03:06           0         5.3       0.059
  WS02006229           JUNCTION      0.00   544.40     0  03:06           0        5.31       0.128
  WS02006230           JUNCTION     10.28   578.36     0  03:02       0.293        5.32       0.101
  WS02006231           JUNCTION      0.00   580.12     0  03:35           0        5.02      -0.092
  WS02006232           JUNCTION      0.00   572.01     0  03:35           0        5.03       0.261
  WS02006234           JUNCTION      0.00   552.54     0  03:04           0        5.01      -0.357
  WS02006235           JUNCTION      0.00   612.16     0  01:33           0        5.17       0.065
  WS02006238           JUNCTION      0.00   428.33     0  03:33           0           4      -0.202
  WS02006239           JUNCTION      0.00   421.89     0  03:37           0        3.86      -0.367
  WS02006240           JUNCTION      0.00   421.18     0  03:33           0         3.8      -0.267
  WS02006242           JUNCTION      0.00   424.06     0  03:35           0         3.8      -0.068
  WS02006243           JUNCTION      0.00   425.28     0  03:35           0         3.8      -0.069
  WS02006245           JUNCTION      0.00   564.48     0  01:39           0        3.83       0.728
  WS02006247           JUNCTION      0.00   490.05     0  01:36           0        3.82      -0.207
  WS02006248           JUNCTION      0.00   575.23     0  01:38           0        3.83       0.054
  WS02006249           JUNCTION      0.00   533.47     0  01:38           0        3.99       0.574
  WS02006251           JUNCTION      0.08   453.56     0  01:38     0.00219        3.99       0.084
  WS02006252           JUNCTION      0.00   400.00     0  00:00           0        3.98      -0.216
  WS02006256           JUNCTION      0.00   300.00     0  00:00           0        1.69     -12.984
  WSF200               JUNCTION      0.00   527.84     0  03:13           0        5.18       0.010
  YS02001580           JUNCTION      0.00    71.88     0  01:56           0     0.00399      -1.059
  YS02001583           JUNCTION      0.00   112.92     0  01:56           0      0.0155      -3.311
  YS02001586           JUNCTION    953.88   953.88     0  02:15        2.22        2.23       0.047
  YS02001590           JUNCTION      0.00   317.87     0  02:40           0        1.57      -0.031
  YS02001593           JUNCTION      0.00   317.86     0  02:05           0        1.57       0.014
  YS02001596           JUNCTION      0.00   317.90     0  02:35           0        1.57       0.005
  YS02001600           JUNCTION      0.00   317.92     0  02:05           0        1.57       0.022
  YS02001601           JUNCTION   1638.08  1955.52     0  02:14        3.02        4.59       0.021
  YS02001602           JUNCTION      0.00   509.20     0  02:46           0        2.64       0.019
  YS02001605           JUNCTION      0.00   509.19     0  02:46           0        2.51       0.021
  YS02001607           JUNCTION      0.00   509.22     0  02:46           0        2.51       0.082
  YS02001610           JUNCTION      0.00   943.00     0  02:15           0        2.97       0.085
  YS02001613           JUNCTION      0.00   606.49     0  02:15           0        2.41       0.070
  YS02001616           JUNCTION      0.00   606.91     0  02:15           0        2.41       0.022
  YS02001619           JUNCTION   1688.11  1688.11     0  02:15        3.56        5.51       0.001
  YS02001622           JUNCTION      0.00  1053.45     0  02:15           0        5.04       0.005
  YS02001625           JUNCTION      0.00  1502.55     0  02:15           0        5.36       0.168
  YS02001629           JUNCTION      0.00   960.96     0  02:37           0        4.24       0.027
  YS02001633           JUNCTION   1231.72  1351.00     0  02:02        2.21        6.08       0.059
  YS02001641           JUNCTION      0.00  1351.09     0  02:02           0        5.71       0.050
  YS02001644           JUNCTION   1096.04  1728.01     0  02:02        1.92        7.62       0.045
  YS02001647           JUNCTION      0.00  1728.47     0  02:02           0           7       0.007
  YS02001649           JUNCTION      0.00  1984.40     0  02:03           0        8.77       0.005
  YS02001652           JUNCTION      0.00  1082.99     0  02:13           0        1.77      -0.060
  YS02001655           JUNCTION      0.15  1083.33     0  02:13     0.00439        1.77       0.029
  YS02001658           JUNCTION      0.00  1082.80     0  02:13           0        1.76      -0.005
  YS02001661           JUNCTION      0.00  1082.50     0  02:13           0        1.76       0.016
  YS02001664           JUNCTION   1067.83  1067.83     0  02:13        1.76        1.76      -0.005
  YS02001745           JUNCTION    668.45   668.45     0  02:13        1.06        1.06       0.080
  YS02001748           JUNCTION      0.04   678.55     0  02:13     0.00128        1.06      -0.112
  YS02001751           JUNCTION      0.01   679.00     0  02:13    0.000313        1.06       0.008
  YS02001754           JUNCTION      0.26   679.40     0  02:13     0.00741        1.07      -0.052
  YS02001757           JUNCTION      0.00  3530.17     0  02:13           0        13.2       0.039
  YS02001759           JUNCTION    930.40  1472.63     0  02:13        1.47         3.4      -0.002
  YS02001762           JUNCTION      0.00   830.59     0  02:20           0        1.94       0.007
  YS02001765           JUNCTION      0.00   829.77     0  02:20           0        1.94       0.009
  YS02001767           JUNCTION      0.54   829.14     0  02:20      0.0152        1.94       0.005
  YS02001770           JUNCTION   1313.87  1313.87     0  02:14        2.23        2.27      -0.001
  YS02001774           JUNCTION      0.00   776.61     0  02:13           0       0.364       0.339
  YS02001779           JUNCTION      0.01   776.04     0  02:13    0.000142       0.321      -0.085
  YS02001783           JUNCTION      0.00  1166.95     0  02:12           0        4.81       0.006
  YS02001784           JUNCTION      1.06  1168.31     0  02:12      0.0302        4.84       0.011
  YS02001786           JUNCTION      0.06  1168.28     0  02:12      0.0016        4.84       0.015
  YS02001788           JUNCTION      0.07  1168.94     0  02:12     0.00202        4.85       0.006
  YS02001790           JUNCTION      0.15  1183.27     0  02:11     0.00442        4.85      -0.002
  YS02001791           JUNCTION      0.00  1291.96     0  02:09           0        4.85      -0.001
  YS02001793           JUNCTION      0.00  1260.62     0  02:10           0        4.85      -0.000
  YS02001882           JUNCTION      0.00    32.51     0  02:00           0      0.0129       5.342
  YS02001884           JUNCTION      0.00    37.36     0  01:59           0      0.0486       5.489
  YS02001887           JUNCTION    994.13   994.13     0  02:13        1.52        1.56       0.288
  YS02001890           JUNCTION      0.00   994.93     0  02:13           0        1.52       0.341
  YS02001895           JUNCTION      0.00   517.38     0  02:14           0        1.33       0.136
  YS02001898           JUNCTION      0.00   517.46     0  02:15           0        1.32       0.021
  YS02001901           JUNCTION      0.00   517.50     0  02:14           0        1.33       0.252
  YS02001904           JUNCTION      0.00   517.45     0  02:15           0        1.33       0.218
  YS02001907           JUNCTION      0.00  2467.18     0  02:13           0        4.68       0.387
  YS02001910           JUNCTION      0.00  1770.95     0  02:13           0        3.32       0.218
  YS02001915           JUNCTION   1184.56  1770.81     0  02:13        2.12        3.34       0.050
  YS02001918           JUNCTION      0.00   588.77     0  02:13           0        1.24       0.017
  YS02001920           JUNCTION      2.87   589.30     0  02:13      0.0818        1.23       0.079
  YS02001923           JUNCTION      0.04   584.44     0  02:13     0.00107        1.13      -0.001
  YS02001926           JUNCTION      0.05   584.20     0  02:13     0.00149        1.12       0.027
  YS02001929           JUNCTION    582.65   582.65     0  02:14        1.12        1.12      -0.030
  YS02006553           JUNCTION      0.00   798.03     0  02:32           0         2.7       0.439
  YS02006556           JUNCTION      0.00   797.70     0  02:32           0        2.71       0.307
  YS02006558           JUNCTION   1347.94  1347.94     0  02:13        2.23        4.88       0.070
  YS02006561           JUNCTION      0.00  1167.08     0  02:12           0        4.81       0.001
  YS02163301           JUNCTION      0.00   961.10     0  02:37           0        4.24       0.039
  YS02163601           JUNCTION      0.11  1351.14     0  02:02     0.00313        5.71       0.090
  YS02164001           JUNCTION      0.00  1351.74     0  02:02           0         5.7       0.044
  CC-1                 OUTFALL       0.00   683.00     0  00:00           0        5.73       0.000
  CC-2                 OUTFALL       0.00   683.00     0  00:00           0        5.73       0.000
  JK-1                 OUTFALL       0.00  1000.00     0  00:00           0        1.86       0.000
  JK-2                 OUTFALL       0.00  1000.00     0  00:00           0        1.86       0.000
  WSC                  OUTFALL       0.00   546.13     0  03:15           0        5.69       0.000
  CC-storage           STORAGE       0.00  3529.68     0  02:13           0        15.5      -0.322
  JK-storage           STORAGE       0.00  1308.67     0  02:10           0           5      -7.201
  
  
  **********************
  Node Surcharge Summary
  **********************
  
  Surcharging occurs when water rises above the top of the highest conduit.
  ---------------------------------------------------------------------
                                               Max. Height   Min. Depth
                                   Hours       Above Crown    Below Rim
  Node                 Type      Surcharged         Meters       Meters
  ---------------------------------------------------------------------
  WS02004404           JUNCTION        0.01          0.159        2.621
  WS02006109           JUNCTION        2.23          0.216        1.604
  WS02006110           JUNCTION        0.06          0.075        1.775
  WS02006112           JUNCTION        1.50          0.074        1.606
  WS02006228           JUNCTION        2.21          0.243        1.957
  WS02006229           JUNCTION        2.25          0.279        2.171
  WS02006230           JUNCTION        0.05          0.110        1.460
  WS02006231           JUNCTION        1.18          1.530        0.000
  WS02006232           JUNCTION        2.33          0.941        0.539
  WS02006234           JUNCTION        1.84          1.240        0.000
  WS02006235           JUNCTION        2.18          1.290        0.000
  WS02006238           JUNCTION        2.28          1.430        0.000
  WS02006239           JUNCTION        2.18          1.290        0.000
  WS02006240           JUNCTION        2.15          1.390        0.000
  WS02006242           JUNCTION        2.29          0.820        0.000
  WS02006243           JUNCTION        2.12          0.770        0.000
  WS02006245           JUNCTION        2.08          0.850        0.000
  WS02006247           JUNCTION        2.13          0.760        0.000
  WS02006248           JUNCTION        2.07          0.380        0.000
  WS02006249           JUNCTION        2.11          0.390        0.000
  WS02006251           JUNCTION        1.59          1.180        0.000
  WS02006252           JUNCTION        2.76          1.100        0.000
  WS02006256           JUNCTION        6.91          2.050        0.000
  YS02001580           JUNCTION        0.80          0.450        0.000
  YS02001583           JUNCTION        0.81          0.500        0.000
  YS02001586           JUNCTION        0.92          0.510        0.000
  YS02001590           JUNCTION        1.01          0.750        0.000
  YS02001593           JUNCTION        1.01          0.697        0.143
  YS02001596           JUNCTION        1.15          0.950        0.120
  YS02001600           JUNCTION        1.32          1.190        0.000
  YS02001601           JUNCTION        1.65          1.440        0.000
  YS02001602           JUNCTION        1.54          1.270        0.000
  YS02001605           JUNCTION        1.49          1.180        0.000
  YS02001607           JUNCTION        0.93          0.646        0.034
  YS02001610           JUNCTION        0.97          0.680        0.000
  YS02001613           JUNCTION        0.93          0.677        0.023
  YS02001616           JUNCTION        0.87          0.610        0.000
  YS02001619           JUNCTION        0.86          0.610        0.000
  YS02001622           JUNCTION        0.84          0.585        0.035
  YS02001625           JUNCTION        1.08          0.780        0.000
  YS02001629           JUNCTION        0.73          0.470        0.000
  YS02001633           JUNCTION        1.09          1.049        0.011
  YS02001641           JUNCTION        0.94          1.016        0.084
  YS02001644           JUNCTION        0.87          0.920        0.000
  YS02001647           JUNCTION        0.57          0.757        0.143
  YS02001649           JUNCTION        0.63          0.983        0.067
  YS02001652           JUNCTION        0.45          0.804        0.326
  YS02001655           JUNCTION        0.35          0.639        0.561
  YS02001658           JUNCTION        0.26          0.408        0.892
  YS02001661           JUNCTION        0.08          0.130        1.260
  YS02001748           JUNCTION        0.16          0.785        0.405
  YS02001751           JUNCTION        0.28          0.729        0.471
  YS02001754           JUNCTION        0.35          0.763        0.387
  YS02001757           JUNCTION        0.62          1.016        0.194
  YS02001759           JUNCTION        0.54          1.026        0.184
  YS02001762           JUNCTION        0.51          1.000        0.150
  YS02001765           JUNCTION        0.46          0.963        0.137
  YS02001767           JUNCTION        0.45          0.942        0.088
  YS02001770           JUNCTION        0.44          0.920        0.000
  YS02001774           JUNCTION        0.50          1.000        0.050
  YS02001779           JUNCTION        0.38          0.680        0.000
  YS02001783           JUNCTION        0.70          0.489        1.111
  YS02001784           JUNCTION        0.67          0.333        1.157
  YS02001786           JUNCTION        0.54          0.099        1.331
  YS02001882           JUNCTION        0.63          0.666        0.164
  YS02001884           JUNCTION        0.64          0.706        0.164
  YS02001887           JUNCTION        0.68          0.797        0.153
  YS02001890           JUNCTION        0.70          0.760        0.000
  YS02001895           JUNCTION        0.62          0.576        0.174
  YS02001898           JUNCTION        0.61          0.541        0.199
  YS02001901           JUNCTION        0.67          0.682        0.188
  YS02001904           JUNCTION        0.66          0.640        0.210
  YS02001907           JUNCTION        0.98          0.950        0.000
  YS02001910           JUNCTION        0.74          0.979        0.121
  YS02001915           JUNCTION        0.63          0.933        0.067
  YS02001918           JUNCTION        0.53          0.810        0.000
  YS02001920           JUNCTION        0.55          1.124        0.016
  YS02001923           JUNCTION        0.18          0.803        0.017
  YS02001926           JUNCTION        0.21          0.900        0.000
  YS02001929           JUNCTION        0.04          0.780        0.000
  YS02006553           JUNCTION        1.00          0.985        0.205
  YS02006556           JUNCTION        0.85          0.927        0.423
  YS02006558           JUNCTION        0.83          0.931        0.469
  YS02006561           JUNCTION        0.49          0.189        0.961
  YS02163301           JUNCTION        1.06          0.947        0.083
  YS02163601           JUNCTION        1.13          1.080        0.000
  YS02164001           JUNCTION        0.96          1.039        0.061
  
  
  *********************
  Node Flooding Summary
  *********************
  
  Flooding refers to all water that overflows a node, whether it ponds or not.
  --------------------------------------------------------------------------
                                                             Total   Maximum
                                 Maximum   Time of Max       Flood    Ponded
                        Hours       Rate    Occurrence      Volume     Depth
  Node                 Flooded       LPS   days hr:min    10^6 ltr    Meters
  --------------------------------------------------------------------------
  WS02006231              0.01     35.96      0  02:52       0.000     0.000
  WS02006234              0.01     38.99      0  03:35       0.000     0.000
  WS02006235              0.01     28.13      0  03:35       0.000     0.000
  WS02006238              0.01     12.68      0  02:50       0.000     0.000
  WS02006239              0.01    128.52      0  01:37       0.000     0.000
  WS02006240              0.01      8.85      0  03:33       0.000     0.000
  WS02006242              0.02    190.15      0  01:37       0.001     0.000
  WS02006243              0.01    140.69      0  01:41       0.000     0.000
  WS02006245              0.01    101.88      0  01:52       0.000     0.000
  WS02006247              0.01    191.94      0  01:41       0.001     0.000
  WS02006248              0.41    213.54      0  01:38       0.012     0.000
  WS02006249              1.41    213.71      0  01:46       0.131     0.000
  WS02006251              0.01      6.99      0  01:47       0.000     0.000
  WS02006252              0.01    249.05      0  01:51       0.001     0.000
  WS02006256              1.54    296.73      0  03:38       0.733     0.000
  YS02001580              0.01     29.25      0  01:56       0.000     0.000
  YS02001583              0.01     53.80      0  01:56       0.000     0.000
  YS02001586              0.65    636.40      0  02:15       0.643     0.000
  YS02001590              0.01      5.72      0  01:56       0.000     0.000
  YS02001600              0.01      1.86      0  01:56       0.000     0.000
  YS02001601              0.83   1557.57      0  02:14       1.948     0.000
  YS02001602              0.61     61.89      0  02:27       0.126     0.000
  YS02001605              0.01      0.11      0  02:09       0.000     0.000
  YS02001610              0.55    942.90      0  02:15       1.021     0.000
  YS02001616              0.06      1.03      0  02:19       0.000     0.000
  YS02001619              0.06     43.99      0  02:14       0.005     0.000
  YS02001625              0.46   1502.47      0  02:15       1.484     0.000
  YS02001629              0.21    166.17      0  02:14       0.052     0.000
  YS02001644              0.24   1402.81      0  02:13       0.614     0.000
  YS02001770              0.01      3.10      0  02:07       0.000     0.000
  YS02001779              0.21    775.98      0  02:13       0.303     0.000
  YS02001890              0.25    478.39      0  02:13       0.185     0.000
  YS02001907              0.47   2466.92      0  02:13       2.006     0.000
  YS02001918              0.01     75.33      0  02:03       0.000     0.000
  YS02001926              0.01     15.34      0  02:03       0.000     0.000
  YS02001929              0.01    132.37      0  02:03       0.000     0.000
  YS02163601              0.01      2.43      0  02:06       0.000     0.000
  
  
  **********************
  Storage Volume Summary
  **********************
  
  ------------------------------------------------------------------------------------------------
                         Average    Avg   Evap  Exfil     Maximum    Max    Time of Max    Maximum
                          Volume   Pcnt   Pcnt   Pcnt      Volume   Pcnt     Occurrence    Outflow
  Storage Unit           1000 m³   Full   Loss   Loss     1000 m³   Full    days hr:min        LPS
  ------------------------------------------------------------------------------------------------
  CC-storage               0.890   13.9    0.0    0.0       3.196   49.9       0  02:48    1783.53
  JK-storage               0.001    0.4    0.0    0.0       0.150   51.6       0  00:00    2300.00
  
  
  ***********************
  Outfall Loading Summary
  ***********************
  
  -----------------------------------------------------------
                         Flow       Avg       Max       Total
                         Freq      Flow      Flow      Volume
  Outfall Node           Pcnt       LPS       LPS    10^6 ltr
  -----------------------------------------------------------
  CC-1                  51.09    683.00    683.00       5.731
  CC-2                  51.09    683.00    683.00       5.731
  JK-1                  13.48    998.96   1000.00       1.862
  JK-2                  13.48    998.96   1000.00       1.862
  WSC                   99.95    285.70    546.13       5.694
  -----------------------------------------------------------
  System                45.82   3649.62   3901.67      20.880
  
  
  ********************
  Link Flow Summary
  ********************
  
  -----------------------------------------------------------------------------
                                 Maximum  Time of Max   Maximum    Max/    Max/
                                  |Flow|   Occurrence   |Veloc|    Full    Full
  Link                 Type          LPS  days hr:min     m/sec    Flow   Depth
  -----------------------------------------------------------------------------
  1                    CONDUIT    546.13     0  03:15      2.81    0.19    0.30
  WS02003060WS02003069 CONDUIT    544.53     0  03:12      1.63    0.21    0.34
  WS02003066WSF200     CONDUIT    527.84     0  03:13      2.84    0.09    0.22
  WS02003067WS02003066 CONDUIT    527.76     0  03:13      1.20    0.17    0.41
  WS02003069WS02003072 CONDUIT    544.35     0  03:13      1.36    0.26    0.38
  WS02003072WS02003073 CONDUIT    544.37     0  03:14      1.43    1.18    0.37
  WS02004401WS02004402 CONDUIT    539.75     0  02:13      1.22    0.65    0.88
  WS02004402WS02004403 CONDUIT    556.37     0  02:14      1.24    0.80    0.90
  WS02004403WS02004404 CONDUIT    557.70     0  02:12      1.24    0.40    0.95
  WS02004404WS02004405 CONDUIT    604.47     0  02:14      1.45    5.92    0.97
  WS02004405WS02004406 CONDUIT    538.14     0  02:12      1.46    1.06    0.96
  WS02004406WS02004407 CONDUIT    533.92     0  03:09      1.04    0.24    0.62
  WS02004407WS02004409 CONDUIT    533.00     0  03:09      1.59    0.19    0.48
  WS02004409WS02004410 CONDUIT    530.66     0  03:10      1.06    0.69    0.67
  WS02004410WS02004411 CONDUIT    529.97     0  03:10      1.12    0.72    0.68
  WS02004411WS02004412 CONDUIT    528.03     0  03:10      1.22    0.75    0.69
  WS02004412WS02004413 CONDUIT    528.19     0  03:12      1.22    0.35    0.77
  WS02004413WS02003067 CONDUIT    527.72     0  03:13      1.10    0.23    0.59
  WS02006109WS02006110 CONDUIT    546.65     0  03:06      1.09    1.05    1.00
  WS02006110WS02006113 CONDUIT    555.96     0  03:06      1.32    0.51    0.78
  WS02006111WS02006112 CONDUIT    541.30     0  03:08      1.95    0.26    0.67
  WS02006112WS02006115 CONDUIT    544.29     0  03:07      0.82    0.32    0.88
  WS02006113WS02006111 CONDUIT    560.46     0  03:08      2.46    0.67    0.46
  WS02006115WS02006116 CONDUIT    538.02     0  03:08      1.29    0.69    0.78
  WS02006116WS02004401 CONDUIT    536.55     0  03:08      1.21    0.74    0.86
  WS02006228WS02006109 CONDUIT    545.08     0  03:06      1.08    2.38    1.00
  WS02006229WS02006228 CONDUIT    544.71     0  03:06      1.12    1.80    1.00
  WS02006230WS02006229 CONDUIT    544.40     0  03:06      1.41   12.12    1.00
  WS02006231WS02006230 CONDUIT    568.08     0  03:02      1.52    8.62    1.00
  WS02006232WS02006231 CONDUIT    580.12     0  03:35      1.51    1.22    1.00
  WS02006234WS02006232 CONDUIT    572.01     0  03:35      1.49    1.16    1.00
  WS02006235WS02006234 CONDUIT    552.54     0  03:04      1.44    5.83    1.00
  WS02006238WS02006235 CONDUIT    462.05     0  03:35      1.45    1.03    1.00
  WS02006239WS02006238 CONDUIT    428.33     0  03:33      1.11    1.37    1.00
  WS02006240WS02006239 CONDUIT    421.89     0  03:37      1.24    1.33    1.00
  WS02006242WS02006240 CONDUIT    421.18     0  03:33      1.16    1.67    1.00
  WS02006243WS02006242 CONDUIT    424.06     0  03:35      1.42    0.91    1.00
  WS02006245WS02006243 CONDUIT    425.28     0  03:35      1.44    1.26    1.00
  WS02006247WS02006245 CONDUIT    564.48     0  01:39      1.48    4.48    1.00
  WS02006248WS02006247 CONDUIT    490.05     0  01:36      1.46    1.07    1.00
  WS02006249WS02006248 CONDUIT    575.23     0  01:38      1.54    3.15    1.00
  WS02006251WS02006249 CONDUIT    533.47     0  01:38      1.99    1.54    1.00
  WS02006252WS02006251 CONDUIT    411.44     0  01:47     19.15    1.51    1.00
  WS02006256WS02006235 CONDUIT    288.91     0  00:00      4.23    3.06    1.00
  WSF200WS02003060     CONDUIT    528.50     0  03:12      2.05    0.12    0.28
  YS02001580YS02001583 CONDUIT     71.88     0  01:56      0.51    0.28    1.00
  YS02001583YS02001586 CONDUIT    112.92     0  01:56      0.49    0.17    1.00
  YS02001586YS02001590 CONDUIT    317.87     0  02:40      1.28    0.56    1.00
  YS02001590YS02001593 CONDUIT    317.86     0  02:05      1.12    2.00    1.00
  YS02001593YS02001596 CONDUIT    317.90     0  02:35      1.78    0.50    1.00
  YS02001596YS02001600 CONDUIT    317.92     0  02:05      1.28    0.62    1.00
  YS02001600YS02001601 CONDUIT    317.84     0  02:35      1.12    0.55    1.00
  YS02001601YS02001602 CONDUIT    509.20     0  02:46      1.80    1.84    1.00
  YS02001602YS02001605 CONDUIT    509.19     0  02:46      1.80   10.78    1.00
  YS02001605YS02001607 CONDUIT    509.22     0  02:46      1.80    2.79    1.00
  YS02001607YS02001610 CONDUIT    509.80     0  02:46      0.65    0.48    1.00
  YS02001610YS02001613 CONDUIT    606.98     0  02:15      0.77    0.70    1.00
  YS02001613YS02001616 CONDUIT    606.49     0  02:15      0.77    0.52    1.00
  YS02001616YS02001619 CONDUIT    606.91     0  02:15      0.77    1.05    1.00
  YS02001619YS02001622 CONDUIT   1053.45     0  02:15      1.34    1.55    1.00
  YS02001622YS02001625 CONDUIT   1053.41     0  02:15      1.34    0.56    1.00
  YS02001625YS02001629 CONDUIT    960.96     0  02:37      1.22    0.46    1.00
  YS02001629YS02163301 CONDUIT    961.10     0  02:37      1.22    1.18    1.00
  YS02001633YS02163601 CONDUIT   1351.03     0  02:02      1.72    1.42    1.00
  YS02001641YS02001644 CONDUIT   1351.09     0  02:02      1.72    4.37    1.00
  YS02001644YS02001647 CONDUIT   1728.47     0  02:02      2.21    1.02    1.00
  YS02001647YS02001649 CONDUIT   1739.85     0  02:02      2.27    0.92    1.00
  YS02001649YS02001757 CONDUIT   1984.67     0  02:03      2.53    1.20    1.00
  YS02001652YS02001649 CONDUIT   1083.21     0  02:13      1.38    0.54    1.00
  YS02001655YS02001652 CONDUIT   1082.99     0  02:13      1.38    0.53    1.00
  YS02001658YS02001655 CONDUIT   1083.17     0  02:13      1.79    0.46    1.00
  YS02001661YS02001658 CONDUIT   1082.80     0  02:13      2.25    0.42    1.00
  YS02001664YS02001661 CONDUIT   1082.50     0  02:13      2.23    0.34    0.83
  YS02001745YS02001748 CONDUIT    678.51     0  02:13      2.10    0.26    0.92
  YS02001748YS02001751 CONDUIT    678.99     0  02:13      1.61    0.34    1.00
  YS02001751YS02001754 CONDUIT    679.14     0  02:13      1.31    0.33    1.00
  YS02001754YS02001757 CONDUIT    679.72     0  02:13      0.87    0.27    1.00
  YS02001757CaochengTiaoxuchi CONDUIT   3529.68     0  02:13      6.90    1.53    1.00
  YS02001759YS02001757 CONDUIT   1472.68     0  02:13      1.88    1.05    1.00
  YS02001762YS02001759 CONDUIT    830.37     0  02:20      1.06    0.96    1.00
  YS02001765YS02001762 CONDUIT    830.59     0  02:20      1.06    0.78    1.00
  YS02001767YS02001765 CONDUIT    829.77     0  02:20      1.06    1.04    1.00
  YS02001770YS02001767 CONDUIT    828.60     0  02:20      1.06    3.28    1.00
  YS02001774YS02001770 CONDUIT    776.61     0  02:13      0.99    0.50    1.00
  YS02001779YS02001774 CONDUIT    776.04     0  02:13      0.99    0.39    1.00
  YS02001783YS02001784 CONDUIT   1167.25     0  02:12      2.32    1.61    1.00
  YS02001784YS02001785 CONDUIT   1168.22     0  02:12      2.32    2.72    1.00
  YS02001786YS02001788 CONDUIT   1168.86     0  02:12      2.49    2.25    0.89
  YS02001788YS02001790 CONDUIT   1183.12     0  02:11      2.74    0.87    0.84
  YS02001790YS02001791 CONDUIT   1291.96     0  02:09      3.43    1.41    0.70
  YS02001791YS02001793 CONDUIT   1260.62     0  02:10      6.38    0.54    0.43
  YS02001793JiankangQianchi CONDUIT   1308.67     0  02:10     24.26    0.10    0.50
  YS02001882YS02001884 CONDUIT     32.51     0  02:00      0.15    0.04    1.00
  YS02001884YS02001887 CONDUIT     37.36     0  01:59      0.11    0.05    1.00
  YS02001887YS02001890 CONDUIT    994.93     0  02:13      1.27    1.70    1.00
  YS02001890YS02001895 CONDUIT    517.38     0  02:14      0.66    0.24    1.00
  YS02001895YS02001898 CONDUIT    517.46     0  02:15      0.66    0.90    1.00
  YS02001898YS02001901 CONDUIT    517.50     0  02:14      0.66    0.33    1.00
  YS02001901YS02001904 CONDUIT    517.45     0  02:15      0.66    0.80    1.00
  YS02001904YS02001907 CONDUIT    517.40     0  02:15      0.66    0.18    1.00
  YS02001907YS02006553 CONDUIT    798.03     0  02:32      0.89    0.94    1.00
  YS02001910YS02001907 CONDUIT   1771.30     0  02:13      2.26    1.00    1.00
  YS02001915YS02001910 CONDUIT   1770.95     0  02:13      2.25    0.88    1.00
  YS02001918YS02001915 CONDUIT    589.31     0  02:13      0.75    0.33    1.00
  YS02001920YS02001918 CONDUIT    588.77     0  02:13      0.75    0.57    1.00
  YS02001923YS02001920 CONDUIT    586.43     0  02:13      0.75    0.26    1.00
  YS02001926YS02001923 CONDUIT    584.40     0  02:13      0.94    0.83    1.00
  YS02001929YS02001926 CONDUIT    584.15     0  02:13      1.07    0.28    1.00
  YS02006553YS02006556 CONDUIT    797.70     0  02:32      1.02    0.68    1.00
  YS02006556YS02006558 CONDUIT    798.07     0  02:32      1.02    0.63    1.00
  YS02006558YS02006561 CONDUIT   1167.08     0  02:12      4.13    2.58    1.00
  YS02006561YS02001783 CONDUIT   1166.95     0  02:12      2.32    0.60    1.00
  YS02163301YS02001633 CONDUIT    960.79     0  02:37      1.22    0.90    1.00
  YS02163601YS02164001 CONDUIT   1351.74     0  02:02      1.72    1.20    1.00
  YS02164001YS02001641 CONDUIT   1351.09     0  02:02      1.72    1.84    1.00
  CC-R1                PUMP       683.00     0  00:00              1.00
  CC-R2                PUMP       683.00     0  00:00              1.00
  CC-S1                PUMP       200.00     0  00:00              1.00
  CC-S2                PUMP       200.00     0  00:00              1.00
  JK-R1                PUMP      1000.00     0  00:00              1.00
  JK-R2                PUMP      1000.00     0  00:00              1.00
  JK-S                 PUMP       300.00     0  00:00              1.00
  
  
  ***************************
  Flow Classification Summary
  ***************************
  
  -------------------------------------------------------------------------------------
                      Adjusted    ---------- Fraction of Time in Flow Class ---------- 
                       /Actual         Up    Down  Sub   Sup   Up    Down  Norm  Inlet 
  Conduit               Length    Dry  Dry   Dry   Crit  Crit  Crit  Crit  Ltd   Ctrl  
  -------------------------------------------------------------------------------------
  1                       1.00   0.00  0.00  0.00  0.00  1.00  0.00  0.00  0.37  0.00
  WS02003060WS02003069    1.00   0.00  0.00  0.00  0.98  0.02  0.00  0.00  0.69  0.00
  WS02003066WSF200        1.00   0.05  0.00  0.00  0.00  0.95  0.00  0.00  0.87  0.00
  WS02003067WS02003066    1.00   0.05  0.00  0.00  0.95  0.00  0.00  0.00  0.00  0.00
  WS02003069WS02003072    1.00   0.00  0.00  0.00  0.99  0.01  0.00  0.00  0.71  0.00
  WS02003072WS02003073    1.00   0.00  0.00  0.00  0.00  0.00  0.00  1.00  0.00  0.00
  WS02004401WS02004402    1.00   0.02  0.00  0.00  0.98  0.00  0.00  0.00  0.00  0.00
  WS02004402WS02004403    1.00   0.02  0.00  0.00  0.98  0.00  0.00  0.00  0.00  0.00
  WS02004403WS02004404    1.00   0.00  0.03  0.00  0.97  0.00  0.00  0.00  0.00  0.00
  WS02004404WS02004405    1.00   0.00  0.00  0.00  1.00  0.00  0.00  0.00  0.02  0.00
  WS02004405WS02004406    1.00   0.00  0.00  0.00  1.00  0.00  0.00  0.00  0.00  0.00
  WS02004406WS02004407    1.00   0.00  0.03  0.00  0.97  0.00  0.00  0.00  0.00  0.00
  WS02004407WS02004409    1.00   0.03  0.00  0.00  0.95  0.01  0.00  0.00  0.96  0.00
  WS02004409WS02004410    1.00   0.03  0.00  0.00  0.96  0.00  0.00  0.00  0.00  0.00
  WS02004410WS02004411    1.00   0.04  0.00  0.00  0.96  0.00  0.00  0.00  0.00  0.00
  WS02004411WS02004412    1.00   0.04  0.00  0.00  0.96  0.00  0.00  0.00  0.00  0.00
  WS02004412WS02004413    1.00   0.04  0.00  0.00  0.96  0.00  0.00  0.00  0.00  0.00
  WS02004413WS02003067    1.00   0.04  0.01  0.00  0.00  0.00  0.95  0.00  0.00  0.00
  WS02006109WS02006110    1.00   0.00  0.01  0.00  0.98  0.00  0.01  0.00  0.00  0.00
  WS02006110WS02006113    1.00   0.01  0.01  0.00  0.98  0.00  0.00  0.00  0.00  0.00
  WS02006111WS02006112    1.00   0.02  0.00  0.00  0.98  0.00  0.00  0.00  0.98  0.00
  WS02006112WS02006115    1.00   0.02  0.00  0.00  0.97  0.00  0.00  0.00  0.00  0.00
  WS02006113WS02006111    1.00   0.02  0.00  0.00  0.00  0.98  0.00  0.00  0.14  0.00
  WS02006115WS02006116    1.00   0.02  0.00  0.00  0.97  0.00  0.00  0.01  0.00  0.00
  WS02006116WS02004401    1.00   0.02  0.00  0.00  0.98  0.00  0.00  0.00  0.00  0.00
  WS02006228WS02006109    1.00   0.00  0.00  0.00  1.00  0.00  0.00  0.00  0.01  0.00
  WS02006229WS02006228    1.00   0.00  0.00  0.00  0.99  0.00  0.00  0.01  0.00  0.00
  WS02006230WS02006229    1.00   0.00  0.00  0.00  0.99  0.00  0.00  0.01  0.03  0.00
  WS02006231WS02006230    1.00   0.00  0.00  0.00  0.30  0.00  0.69  0.00  0.00  0.00
  WS02006232WS02006231    1.00   0.00  0.00  0.00  0.99  0.00  0.01  0.00  0.00  0.00
  WS02006234WS02006232    1.00   0.00  0.00  0.00  1.00  0.00  0.00  0.00  0.01  0.00
  WS02006235WS02006234    1.00   0.00  0.00  0.00  0.95  0.00  0.05  0.00  0.00  0.00
  WS02006238WS02006235    1.00   0.00  0.00  0.00  1.00  0.00  0.00  0.00  0.01  0.00
  WS02006239WS02006238    1.00   0.00  0.00  0.00  1.00  0.00  0.00  0.00  0.07  0.00
  WS02006240WS02006239    1.00   0.00  0.00  0.00  0.92  0.00  0.00  0.08  0.22  0.00
  WS02006242WS02006240    1.00   0.00  0.00  0.00  0.87  0.00  0.13  0.00  0.00  0.00
  WS02006243WS02006242    1.00   0.00  0.00  0.00  0.98  0.00  0.00  0.02  0.55  0.00
  WS02006245WS02006243    1.00   0.00  0.00  0.00  0.69  0.00  0.00  0.31  0.02  0.00
  WS02006247WS02006245    1.00   0.00  0.00  0.00  0.98  0.00  0.00  0.02  0.00  0.00
  WS02006248WS02006247    1.00   0.00  0.00  0.00  0.98  0.00  0.00  0.02  0.30  0.00
  WS02006249WS02006248    1.00   0.00  0.00  0.00  0.46  0.00  0.54  0.00  0.00  0.00
  WS02006251WS02006249    1.00   0.00  0.00  0.00  0.99  0.01  0.00  0.00  0.55  0.00
  WS02006252WS02006251    1.00   0.00  0.63  0.00  0.20  0.00  0.17  0.00  0.00  0.00
  WS02006256WS02006235    1.00   0.00  0.00  0.00  0.96  0.04  0.00  0.00  0.01  0.00
  WSF200WS02003060        1.00   0.00  0.05  0.00  0.26  0.69  0.00  0.00  0.63  0.00
  YS02001580YS02001583    1.00   0.24  0.54  0.00  0.22  0.00  0.00  0.00  0.63  0.00
  YS02001583YS02001586    1.00   0.40  0.33  0.00  0.27  0.00  0.00  0.00  0.63  0.00
  YS02001586YS02001590    1.00   0.13  0.00  0.00  0.46  0.04  0.00  0.37  0.37  0.00
  YS02001590YS02001593    1.00   0.13  0.01  0.00  0.15  0.00  0.72  0.00  0.00  0.00
  YS02001593YS02001596    1.00   0.13  0.00  0.00  0.17  0.01  0.00  0.69  0.02  0.00
  YS02001596YS02001600    1.00   0.14  0.00  0.00  0.23  0.01  0.00  0.62  0.04  0.00
  YS02001600YS02001601    1.00   0.13  0.01  0.00  0.86  0.00  0.00  0.00  0.58  0.00
  YS02001601YS02001602    1.00   0.13  0.01  0.00  0.87  0.00  0.00  0.00  0.00  0.00
  YS02001602YS02001605    1.00   0.13  0.00  0.00  0.87  0.00  0.00  0.00  0.00  0.00
  YS02001605YS02001607    1.00   0.14  0.00  0.00  0.86  0.00  0.00  0.00  0.00  0.00
  YS02001607YS02001610    1.00   0.13  0.01  0.00  0.86  0.00  0.00  0.00  0.01  0.00
  YS02001610YS02001613    1.00   0.13  0.00  0.00  0.87  0.00  0.00  0.00  0.00  0.00
  YS02001613YS02001616    1.00   0.13  0.00  0.00  0.87  0.00  0.00  0.00  0.00  0.00
  YS02001616YS02001619    1.00   0.13  0.00  0.00  0.87  0.00  0.00  0.00  0.00  0.00
  YS02001619YS02001622    1.00   0.13  0.00  0.00  0.87  0.00  0.00  0.00  0.26  0.00
  YS02001622YS02001625    1.00   0.13  0.00  0.00  0.87  0.00  0.00  0.00  0.03  0.00
  YS02001625YS02001629    1.00   0.13  0.04  0.00  0.19  0.00  0.64  0.00  0.00  0.00
  YS02001629YS02163301    1.00   0.15  0.01  0.00  0.84  0.00  0.00  0.00  0.00  0.00
  YS02001633YS02163601    1.00   0.00  0.01  0.00  0.99  0.00  0.00  0.00  0.14  0.00
  YS02001641YS02001644    1.00   0.00  0.01  0.00  0.99  0.00  0.00  0.00  0.00  0.00
  YS02001644YS02001647    1.00   0.00  0.16  0.00  0.84  0.00  0.00  0.00  0.00  0.00
  YS02001647YS02001649    1.00   0.00  0.16  0.00  0.52  0.32  0.00  0.00  0.54  0.00
  YS02001649YS02001757    1.00   0.00  0.00  0.00  0.85  0.15  0.00  0.00  0.73  0.00
  YS02001652YS02001649    1.00   0.00  0.00  0.00  0.97  0.03  0.00  0.00  0.72  0.00
  YS02001655YS02001652    1.00   0.00  0.00  0.00  0.21  0.01  0.00  0.78  0.09  0.00
  YS02001658YS02001655    1.00   0.00  0.14  0.00  0.63  0.23  0.00  0.00  0.71  0.00
  YS02001661YS02001658    1.00   0.14  0.00  0.00  0.46  0.40  0.00  0.00  0.70  0.00
  YS02001664YS02001661    1.00   0.13  0.00  0.00  0.71  0.16  0.00  0.00  0.85  0.00
  YS02001745YS02001748    1.00   0.00  0.00  0.00  0.06  0.02  0.00  0.93  0.03  0.00
  YS02001748YS02001751    1.00   0.00  0.00  0.00  0.78  0.22  0.00  0.00  0.79  0.00
  YS02001751YS02001754    1.00   0.00  0.00  0.00  0.15  0.02  0.00  0.84  0.05  0.00
  YS02001754YS02001757    1.00   0.00  0.00  0.00  1.00  0.00  0.00  0.00  0.82  0.00
  YS02001757CaochengTiaoxuchi    1.00   0.00  0.00  0.00  0.18  0.82  0.00  0.00  0.12  0.00
  YS02001759YS02001757    1.00   0.00  0.00  0.00  1.00  0.00  0.00  0.00  0.61  0.00
  YS02001762YS02001759    1.00   0.00  0.00  0.00  1.00  0.00  0.00  0.00  0.05  0.00
  YS02001765YS02001762    1.00   0.00  0.00  0.00  1.00  0.00  0.00  0.00  0.70  0.00
  YS02001767YS02001765    1.00   0.00  0.00  0.00  1.00  0.00  0.00  0.00  0.00  0.00
  YS02001770YS02001767    1.00   0.00  0.00  0.00  1.00  0.00  0.00  0.00  0.00  0.00
  YS02001774YS02001770    1.00   0.00  0.13  0.00  0.72  0.00  0.15  0.00  0.02  0.00
  YS02001779YS02001774    1.00   0.00  0.00  0.00  1.00  0.00  0.00  0.00  0.76  0.00
  YS02001783YS02001784    1.00   0.00  0.17  0.00  0.83  0.00  0.00  0.00  0.54  0.00
  YS02001784YS02001785    1.00   0.00  0.00  0.00  1.00  0.00  0.00  0.00  0.16  0.00
  YS02001786YS02001788    1.00   0.00  0.00  0.00  0.79  0.21  0.00  0.00  0.00  0.00
  YS02001788YS02001790    1.00   0.00  0.00  0.00  0.22  0.78  0.00  0.00  0.78  0.00
  YS02001790YS02001791    1.00   0.00  0.00  0.00  0.01  0.99  0.00  0.00  0.15  0.00
  YS02001791YS02001793    1.00   0.00  0.00  0.00  0.00  1.00  0.00  0.00  0.01  0.00
  YS02001793JiankangQianchi    1.00   0.00  0.00  0.00  0.00  1.00  0.00  0.00  0.20  0.00
  YS02001882YS02001884    1.00   0.15  0.01  0.00  0.85  0.00  0.00  0.00  0.00  0.00
  YS02001884YS02001887    1.00   0.06  0.05  0.00  0.89  0.00  0.00  0.00  0.00  0.00
  YS02001887YS02001890    1.00   0.00  0.00  0.00  0.97  0.00  0.03  0.00  0.00  0.00
  YS02001890YS02001895    1.00   0.00  0.15  0.00  0.84  0.00  0.00  0.00  0.00  0.00
  YS02001895YS02001898    1.00   0.16  0.00  0.00  0.82  0.00  0.02  0.00  0.00  0.00
  YS02001898YS02001901    1.00   0.16  0.00  0.00  0.84  0.00  0.00  0.00  0.01  0.00
  YS02001901YS02001904    1.00   0.16  0.00  0.00  0.84  0.00  0.00  0.00  0.00  0.00
  YS02001904YS02001907    1.00   0.00  0.16  0.00  0.84  0.00  0.00  0.00  0.00  0.00
  YS02001907YS02006553    1.00   0.00  0.02  0.00  0.98  0.00  0.00  0.00  0.00  0.00
  YS02001910YS02001907    1.00   0.00  0.00  0.00  0.97  0.00  0.00  0.03  0.12  0.00
  YS02001915YS02001910    1.00   0.00  0.00  0.00  0.97  0.03  0.00  0.00  0.14  0.00
  YS02001918YS02001915    1.00   0.00  0.01  0.00  0.98  0.02  0.00  0.00  0.71  0.00
  YS02001920YS02001918    1.00   0.00  0.01  0.00  0.99  0.00  0.00  0.00  0.00  0.00
  YS02001923YS02001920    1.00   0.00  0.00  0.00  1.00  0.00  0.00  0.00  0.90  0.00
  YS02001926YS02001923    1.00   0.00  0.07  0.00  0.08  0.00  0.85  0.00  0.00  0.00
  YS02001929YS02001926    1.00   0.00  0.13  0.00  0.87  0.00  0.00  0.00  0.80  0.00
  YS02006553YS02006556    1.00   0.01  0.00  0.00  0.99  0.00  0.00  0.00  0.03  0.00
  YS02006556YS02006558    1.00   0.00  0.00  0.00  1.00  0.00  0.00  0.00  0.00  0.00
  YS02006558YS02006561    1.00   0.17  0.00  0.00  0.07  0.75  0.00  0.00  0.17  0.00
  YS02006561YS02001783    1.00   0.17  0.00  0.00  0.12  0.71  0.00  0.00  0.66  0.00
  YS02163301YS02001633    1.00   0.00  0.15  0.00  0.85  0.00  0.00  0.00  0.00  0.00
  YS02163601YS02164001    1.00   0.00  0.08  0.00  0.92  0.00  0.00  0.00  0.00  0.00
  YS02164001YS02001641    1.00   0.01  0.08  0.00  0.92  0.00  0.00  0.00  0.05  0.00
  
  
  *************************
  Conduit Surcharge Summary
  *************************
  
  ----------------------------------------------------------------------------
                                                           Hours        Hours 
                         --------- Hours Full --------   Above Full   Capacity
  Conduit                Both Ends  Upstream  Dnstream   Normal Flow   Limited
  ----------------------------------------------------------------------------
  WS02003072WS02003073        0.01      0.01      0.01      1.90         0.01
  WS02004403WS02004404        0.01      0.01      0.01      0.01         0.01
  WS02004404WS02004405        0.01      0.01      0.01      3.37         0.01
  WS02004405WS02004406        0.01      0.01      0.01      0.84         0.01
  WS02006109WS02006110        0.06      0.06      2.31      0.09         0.01
  WS02006110WS02006113        0.01      0.01      2.29      0.01         0.01
  WS02006111WS02006112        0.01      0.01      2.35      0.01         0.01
  WS02006112WS02006115        0.01      0.01      1.50      0.01         0.01
  WS02006228WS02006109        2.23      2.31      2.23      2.64         2.23
  WS02006229WS02006228        2.21      2.25      2.21      2.46         2.20
  WS02006230WS02006229        2.38      2.42      2.38      4.27         2.38
  WS02006231WS02006230        0.05      0.05      1.44      3.67         0.01
  WS02006232WS02006231        1.14      1.14      2.32      1.37         0.01
  WS02006234WS02006232        2.14      2.14      2.32      0.82         0.87
  WS02006235WS02006234        1.78      1.82      2.16      3.32         0.28
  WS02006238WS02006235        2.23      2.23      2.35      0.01         0.10
  WS02006239WS02006238        2.26      2.31      2.28      2.21         1.42
  WS02006240WS02006239        2.14      2.19      2.17      2.21         1.40
  WS02006242WS02006240        2.15      2.15      2.35      2.49         0.03
  WS02006243WS02006242        2.14      2.15      2.29      0.01         0.37
  WS02006245WS02006243        2.09      2.11      2.11      2.25         1.32
  WS02006247WS02006245        2.08      2.16      2.08      2.83         1.85
  WS02006248WS02006247        2.08      2.10      2.13      0.01         0.68
  WS02006249WS02006248        2.06      2.07      2.10      2.74         0.02
  WS02006251WS02006249        2.10      2.15      2.11      2.60         1.85
  WS02006252WS02006251        2.76      2.76      2.76      2.76         0.01
  WS02006256WS02006235        2.54      3.40      5.85      1.91         0.08
  YS02001580YS02001583        0.80      0.80      0.84      0.01         0.01
  YS02001583YS02001586        0.80      0.80      0.92      0.01         0.01
  YS02001586YS02001590        0.93      0.93      1.01      0.01         0.01
  YS02001590YS02001593        1.01      1.01      1.04      1.08         0.01
  YS02001593YS02001596        1.03      1.03      1.15      0.01         0.01
  YS02001596YS02001600        1.22      1.22      1.32      0.01         0.01
  YS02001600YS02001601        1.38      1.38      1.65      0.01         0.01
  YS02001601YS02001602        1.54      1.54      1.69      1.35         0.01
  YS02001602YS02001605        1.49      1.49      1.54      2.48         0.01
  YS02001605YS02001607        1.44      1.49      1.44      1.62         1.44
  YS02001607YS02001610        0.93      0.93      0.97      0.01         0.01
  YS02001610YS02001613        0.93      0.93      0.97      0.01         0.01
  YS02001613YS02001616        0.87      0.87      0.93      0.01         0.01
  YS02001616YS02001619        0.86      0.86      0.87      0.06         0.06
  YS02001619YS02001622        0.84      0.86      0.84      1.07         0.83
  YS02001622YS02001625        0.84      0.84      1.08      0.01         0.01
  YS02001625YS02001629        0.73      0.73      1.08      0.01         0.01
  YS02001629YS02163301        1.05      1.05      1.06      0.47         0.44
  YS02001633YS02163601        1.09      1.09      1.13      0.62         0.60
  YS02001641YS02001644        0.87      0.94      0.87      1.72         0.86
  YS02001644YS02001647        0.57      0.57      0.87      0.03         0.01
  YS02001647YS02001649        0.57      0.57      0.63      0.01         0.01
  YS02001649YS02001757        0.62      0.63      0.62      0.51         0.42
  YS02001652YS02001649        0.46      0.46      0.63      0.01         0.01
  YS02001655YS02001652        0.35      0.35      0.45      0.01         0.01
  YS02001658YS02001655        0.26      0.26      0.35      0.01         0.01
  YS02001661YS02001658        0.08      0.08      0.26      0.01         0.01
  YS02001664YS02001661        0.01      0.01      0.12      0.01         0.01
  YS02001745YS02001748        0.01      0.01      0.16      0.01         0.01
  YS02001748YS02001751        0.22      0.22      0.28      0.01         0.01
  YS02001751YS02001754        0.28      0.28      0.35      0.01         0.01
  YS02001754YS02001757        0.38      0.38      0.62      0.01         0.01
  YS02001757CaochengTiaoxuchi        0.12      0.62      0.56      0.65         0.08
  YS02001759YS02001757        0.54      0.54      0.62      0.09         0.10
  YS02001762YS02001759        0.51      0.51      0.54      0.01         0.03
  YS02001765YS02001762        0.46      0.46      0.51      0.01         0.01
  YS02001767YS02001765        0.45      0.45      0.46      0.02         0.05
  YS02001770YS02001767        0.45      0.45      0.45      0.75         0.44
  YS02001774YS02001770        0.44      0.44      0.50      0.01         0.01
  YS02001779YS02001774        0.38      0.38      0.50      0.01         0.01
  YS02001783YS02001784        0.67      0.70      0.67      0.89         0.67
  YS02001784YS02001785        0.54      0.67      0.54      1.20         0.54
  YS02001786YS02001788        0.01      0.54      0.01      1.03         0.01
  YS02001790YS02001791        0.01      0.01      0.01      0.65         0.01
  YS02001882YS02001884        0.63      0.63      0.64      0.01         0.01
  YS02001884YS02001887        0.67      0.67      0.68      0.01         0.01
  YS02001887YS02001890        0.70      0.70      0.72      0.18         0.01
  YS02001890YS02001895        0.62      0.62      0.74      0.01         0.01
  YS02001895YS02001898        0.61      0.61      0.62      0.01         0.01
  YS02001898YS02001901        0.62      0.62      0.67      0.01         0.01
  YS02001901YS02001904        0.66      0.66      0.67      0.01         0.01
  YS02001904YS02001907        0.66      0.66      1.01      0.01         0.01
  YS02001907YS02006553        1.21      1.21      1.30      0.01         0.01
  YS02001910YS02001907        0.74      0.74      0.98      0.01         0.01
  YS02001915YS02001910        0.63      0.63      0.74      0.01         0.01
  YS02001918YS02001915        0.53      0.53      0.63      0.01         0.01
  YS02001920YS02001918        0.53      0.53      0.55      0.01         0.01
  YS02001923YS02001920        0.48      0.48      0.55      0.01         0.01
  YS02001926YS02001923        0.18      0.18      0.21      0.01         0.01
  YS02001929YS02001926        0.04      0.04      0.21      0.01         0.01
  YS02006553YS02006556        0.85      0.85      1.00      0.01         0.01
  YS02006556YS02006558        0.93      0.93      1.03      0.01         0.01
  YS02006558YS02006561        0.57      0.83      0.57      1.14         0.57
  YS02006561YS02001783        0.49      0.49      0.70      0.01         0.01
  YS02163301YS02001633        1.06      1.06      1.12      0.01         0.02
  YS02163601YS02164001        0.96      0.96      1.13      0.39         0.01
  YS02164001YS02001641        0.94      0.96      0.94      0.92         0.70
  
  
  ***************
  Pumping Summary
  ***************
  
  ---------------------------------------------------------------------------------------------------------
                                                  Min       Avg       Max     Total     Power    % Time Off
                        Percent   Number of      Flow      Flow      Flow    Volume     Usage    Pump Curve
  Pump                 Utilized   Start-Ups       LPS       LPS       LPS  10^6 ltr     Kw-hr    Low   High
  ---------------------------------------------------------------------------------------------------------
  CC-R1                   29.44           9      0.00    683.00    683.00     5.730     94.98    0.0   75.8
  CC-R2                   29.44           9      0.00    683.00    683.00     5.730     94.98    0.0   75.8
  CC-S1                   34.91          17      0.00    200.00    200.00     1.990     15.57    0.0   42.3
  CC-S2                   34.91          17      0.00    200.00    200.00     1.990     15.57    0.0   42.3
  JK-R1                    6.67         519      0.00    998.96   1000.00     1.897      4.57    0.0    0.0
  JK-R2                    6.67         519      0.00    998.96   1000.00     1.897      4.57    0.0    0.0
  JK-S                    20.21         754      0.00    296.91    300.00     1.675     38.41    0.0    0.0
  

  Analysis begun on:  Thu Jan 16 14:21:21 2025
  Analysis ended on:  Thu Jan 16 14:21:23 2025
  Total elapsed time: 00:00:02