
  EPA STORM WATER MANAGEMENT MODEL - VERSION 5.2 (Build 5.2.4)
  PYSWMM TOOLKIT API - VERSION v1.0 (2023-11-27)
  ------------------------------------------------------------

  WARNING 04: minimum elevation drop used for Conduit WS02004404WS02004405
  WARNING 03: negative offset ignored for Link YS02001904YS02001907
  
  ****************
  Analysis Options
  ****************
  Flow Units ............... LPS
  Process Models:
    Rainfall/Runoff ........ YES
    RDII ................... NO
    Snowmelt ............... NO
    Groundwater ............ NO
    Flow Routing ........... YES
    Ponding Allowed ........ NO
    Water Quality .......... NO
  Infiltration Method ...... HORTON
  Flow Routing Method ...... DYNWAVE
  Surcharge Method ......... EXTRAN
  Starting Date ............ 08/28/2015 08:00:00
  Ending Date .............. 08/28/2015 16:00:00
  Antecedent Dry Days ...... 8.0
  Report Time Step ......... 00:01:00
  Wet Time Step ............ 00:01:00
  Dry Time Step ............ 00:01:00
  Routing Time Step ........ 30.00 sec
  Variable Time Step ....... YES
  Maximum Trials ........... 8
  Number of Threads ........ 4
  Head Tolerance ........... 0.001500 m
  
  
  **************************        Volume         Depth
  Runoff Quantity Continuity     hectare-m            mm
  **************************     ---------       -------
  Total Precipitation ......         1.719        51.815
  Evaporation Loss .........         0.000         0.000
  Infiltration Loss ........         0.098         2.965
  Surface Runoff ...........         1.588        47.863
  Final Storage ............         0.033         0.996
  Continuity Error (%) .....        -0.017
  
  
  **************************        Volume        Volume
  Flow Routing Continuity        hectare-m      10^6 ltr
  **************************     ---------     ---------
  Dry Weather Inflow .......         0.025         0.248
  Wet Weather Inflow .......         1.587        15.873
  Groundwater Inflow .......         0.000         0.000
  RDII Inflow ..............         0.000         0.000
  External Inflow ..........         0.083         0.825
  External Outflow .........         1.620        16.198
  Flooding Loss ............         0.342         3.421
  Evaporation Loss .........         0.000         0.000
  Exfiltration Loss ........         0.000         0.000
  Initial Stored Volume ....         0.243         2.431
  Final Stored Volume ......         0.039         0.392
  Continuity Error (%) .....        -3.271
  
  
  *************************
  Highest Continuity Errors
  *************************
  Node WS02006256 (-16.11%)
  Node JK-storage (-9.35%)
  Node YS02001884 (5.29%)
  Node YS02001583 (-4.40%)
  Node YS02001774 (1.79%)
  
  
  ***************************
  Time-Step Critical Elements
  ***************************
  Link WS02006238WS02006235 (42.20%)
  Link YS02001793JiankangQianchi (27.34%)
  Link WS02003066WSF200 (6.49%)
  Link WS02004404WS02004405 (5.28%)
  Link WS02006252WS02006251 (1.99%)
  
  
  ********************************
  Highest Flow Instability Indexes
  ********************************
  Link WS02006256WS02006235 (42)
  Link WS02006229WS02006228 (40)
  Link WS02006113WS02006111 (38)
  Link WS02006252WS02006251 (35)
  Link WS02006235WS02006234 (31)
  
  
  *********************************
  Most Frequent Nonconverging Nodes
  *********************************
  Node CC-1 (45.76%)
  Node CC-2 (45.76%)
  Node JK-1 (45.76%)
  Node JK-2 (45.76%)
  Node WSC (45.76%)
  
  
  *************************
  Routing Time Step Summary
  *************************
  Minimum Time Step           :     0.00 sec
  Average Time Step           :     2.58 sec
  Maximum Time Step           :     6.43 sec
  % of Time in Steady State   :     0.00
  Average Iterations per Step :     5.30
  % of Steps Not Converging   :    45.76
  Time Step Frequencies       :
     30.000 - 13.228 sec      :     0.00 %
     13.228 -  5.833 sec      :     4.96 %
      5.833 -  2.572 sec      :    36.09 %
      2.572 -  1.134 sec      :    42.95 %
      1.134 -  0.500 sec      :    16.00 %
  
  
  ***************************
  Subcatchment Runoff Summary
  ***************************
  
  ------------------------------------------------------------------------------------------------------------------------------
                            Total      Total      Total      Total     Imperv       Perv      Total       Total     Peak  Runoff
                           Precip      Runon       Evap      Infil     Runoff     Runoff     Runoff      Runoff   Runoff   Coeff
  Subcatchment                 mm         mm         mm         mm         mm         mm         mm    10^6 ltr      LPS
  ------------------------------------------------------------------------------------------------------------------------------
  sub60                     51.82       0.00       0.00       1.78      44.39       4.44      48.83        0.64   399.63   0.942
  sub61                     51.82       0.00       0.00       2.59      41.87       6.23      48.10        0.88   554.63   0.928
  sub62                     51.82       0.00       0.00       1.19      46.38       2.96      49.34        1.35   786.18   0.952
  sub63                     51.82       0.00       0.00       4.78      35.81      10.24      46.06        1.05   624.83   0.889
  sub64                     51.82       0.00       0.00       2.42      42.83       5.36      48.19        1.16   642.49   0.930
  sub65                     51.82       0.00       0.00       2.09      43.82       4.65      48.47        1.33   718.26   0.935
  sub66                     51.82       0.00       0.00       5.91      35.71       9.12      44.83        2.09   942.90   0.865
  sub67                     51.82       0.00       0.00       1.14      46.42       3.00      49.42        0.92   602.58   0.954
  sub68                     51.82       0.00       0.00       2.14      43.37       5.11      48.48        1.33   803.43   0.936
  sub69                     51.82       0.00       0.00       1.91      43.93       5.87      49.79        1.84   956.08   0.961
  sub70                     51.82       0.00       0.00       6.33      34.03      11.29      45.32        1.31   530.88   0.875
  sub71                     51.82       0.00       0.00       1.22      46.34       2.93      49.26        1.29   696.05   0.951
  sub72                     51.82       0.00       0.00       1.09      46.78       2.54      49.32        0.68   338.00   0.952
  
  
  ******************
  Node Depth Summary
  ******************
  
  ---------------------------------------------------------------------------------
                                 Average  Maximum  Maximum  Time of Max    Reported
                                   Depth    Depth      HGL   Occurrence   Max Depth
  Node                 Type       Meters   Meters   Meters  days hr:min      Meters
  ---------------------------------------------------------------------------------
  WS02003060           JUNCTION     0.24     0.38     5.31     0  03:05        0.38
  WS02003066           JUNCTION     0.19     0.30     5.85     0  03:05        0.30
  WS02003067           JUNCTION     0.50     0.70     6.02     0  03:05        0.70
  WS02003069           JUNCTION     0.26     0.43     5.01     0  03:05        0.43
  WS02003072           JUNCTION     0.32     0.50     4.87     0  03:06        0.50
  WS02003073           JUNCTION     0.18     0.30     4.36     0  03:07        0.30
  WS02004401           JUNCTION     0.59     0.85     6.85     0  03:01        0.85
  WS02004402           JUNCTION     0.62     0.87     6.83     0  03:01        0.87
  WS02004403           JUNCTION     0.64     0.89     6.82     0  03:02        0.89
  WS02004404           JUNCTION     0.71     0.96     6.81     0  03:02        0.96
  WS02004405           JUNCTION     0.71     0.95     6.80     0  03:02        0.95
  WS02004406           JUNCTION     0.72     0.95     6.78     0  03:02        0.95
  WS02004407           JUNCTION     0.18     0.29     6.61     0  03:02        0.29
  WS02004409           JUNCTION     0.39     0.66     6.43     0  03:04        0.66
  WS02004410           JUNCTION     0.42     0.68     6.40     0  03:04        0.68
  WS02004411           JUNCTION     0.44     0.69     6.37     0  03:04        0.69
  WS02004412           JUNCTION     0.46     0.69     6.33     0  03:05        0.69
  WS02004413           JUNCTION     0.61     0.85     6.32     0  03:05        0.85
  WS02006109           JUNCTION     0.67     1.04     7.66     0  02:55        1.04
  WS02006110           JUNCTION     0.67     0.97     7.56     0  02:57        0.96
  WS02006111           JUNCTION     0.18     0.29     6.99     0  02:58        0.29
  WS02006112           JUNCTION     0.75     1.06     6.94     0  03:00        1.05
  WS02006113           JUNCTION     0.28     0.46     7.35     0  02:58        0.46
  WS02006115           JUNCTION     0.48     0.75     6.89     0  03:01        0.75
  WS02006116           JUNCTION     0.56     0.83     6.87     0  03:01        0.83
  WS02006228           JUNCTION     0.67     1.09     7.74     0  02:55        1.09
  WS02006229           JUNCTION     0.64     1.09     7.79     0  02:55        1.09
  WS02006230           JUNCTION     0.66     1.21     7.95     0  03:01        1.18
  WS02006231           JUNCTION     0.46     1.49     8.61     0  02:36        0.90
  WS02006232           JUNCTION     0.60     1.89     8.93     0  03:05        1.61
  WS02006234           JUNCTION     0.53     1.96     9.12     0  02:41        1.96
  WS02006235           JUNCTION     0.58     2.00     9.16     0  02:25        2.00
  WS02006238           JUNCTION     0.61     2.15     9.29     0  02:25        2.15
  WS02006239           JUNCTION     0.57     2.03     9.24     0  02:41        2.03
  WS02006240           JUNCTION     0.53     2.10     9.39     0  01:45        2.10
  WS02006242           JUNCTION     0.60     1.55     8.82     0  01:45        1.55
  WS02006243           JUNCTION     0.52     1.48     8.90     0  01:49        1.48
  WS02006245           JUNCTION     0.52     1.56     9.04     0  02:41        1.56
  WS02006247           JUNCTION     0.54     1.47     8.97     0  01:49        1.47
  WS02006248           JUNCTION     0.50     1.10     8.69     0  01:44        1.10
  WS02006249           JUNCTION     0.53     1.09     8.69     0  01:45        1.09
  WS02006251           JUNCTION     0.52     1.63     9.30     0  01:52        1.35
  WS02006252           JUNCTION     0.34     1.50     9.74     0  00:00        0.92
  WS02006256           JUNCTION     1.12     2.35     9.28     0  00:00        2.35
  WSF200               JUNCTION     0.17     0.29     5.52     0  03:05        0.29
  YS02001580           JUNCTION     0.12     1.05     9.59     0  02:06        0.77
  YS02001583           JUNCTION     0.15     1.14     9.64     0  02:06        1.14
  YS02001586           JUNCTION     0.25     1.13     9.30     0  02:06        1.13
  YS02001590           JUNCTION     0.36     1.40     9.26     0  02:06        1.40
  YS02001593           JUNCTION     0.29     1.35     9.21     0  02:25        1.29
  YS02001596           JUNCTION     0.40     1.75     9.16     0  02:04        1.75
  YS02001600           JUNCTION     0.48     1.87     9.00     0  02:04        1.87
  YS02001601           JUNCTION     0.67     2.06     8.90     0  02:04        2.06
  YS02001602           JUNCTION     0.58     1.87     8.77     0  02:05        1.87
  YS02001605           JUNCTION     0.53     1.78     8.68     0  02:05        1.77
  YS02001607           JUNCTION     0.50     1.68     8.53     0  02:25        1.68
  YS02001610           JUNCTION     0.54     1.68     8.48     0  02:05        1.68
  YS02001613           JUNCTION     0.50     1.70     8.54     0  02:25        1.70
  YS02001616           JUNCTION     0.43     1.60     8.51     0  02:05        1.58
  YS02001619           JUNCTION     0.41     1.58     8.51     0  02:12        1.58
  YS02001622           JUNCTION     0.39     1.56     8.46     0  02:25        1.56
  YS02001625           JUNCTION     0.64     1.78     8.38     0  02:09        1.78
  YS02001629           JUNCTION     0.53     1.85     8.40     0  02:10        1.85
  YS02001633           JUNCTION     0.59     2.04     8.49     0  02:11        1.99
  YS02001641           JUNCTION     0.56     1.96     8.40     0  02:11        1.93
  YS02001644           JUNCTION     0.55     1.92     8.35     0  02:11        1.92
  YS02001647           JUNCTION     0.32     1.82     8.43     0  02:12        1.71
  YS02001649           JUNCTION     0.35     2.03     8.42     0  02:12        1.89
  YS02001652           JUNCTION     0.23     2.01     8.61     0  02:11        1.73
  YS02001655           JUNCTION     0.16     1.91     8.76     0  02:11        1.52
  YS02001658           JUNCTION     0.12     1.96     9.10     0  02:11        1.29
  YS02001661           JUNCTION     0.15     1.58     8.99     0  02:12        1.07
  YS02001664           JUNCTION     0.07     0.59     8.51     0  02:12        0.51
  YS02001745           JUNCTION     0.07     0.75     8.27     0  02:12        0.69
  YS02001748           JUNCTION     0.10     2.07     9.15     0  02:12        1.13
  YS02001751           JUNCTION     0.12     1.82     8.70     0  02:12        1.31
  YS02001754           JUNCTION     0.18     1.99     8.60     0  02:12        1.57
  YS02001757           JUNCTION     0.36     2.06     8.32     0  02:12        1.90
  YS02001759           JUNCTION     0.29     2.04     8.40     0  02:12        1.87
  YS02001762           JUNCTION     0.28     2.04     8.44     0  02:12        1.85
  YS02001765           JUNCTION     0.26     2.00     8.45     0  02:12        1.82
  YS02001767           JUNCTION     0.26     1.98     8.47     0  02:12        1.82
  YS02001770           JUNCTION     0.27     1.95     8.44     0  02:12        1.87
  YS02001774           JUNCTION     0.33     2.01     8.43     0  02:12        1.94
  YS02001779           JUNCTION     0.17     1.68     8.37     0  02:10        1.68
  YS02001783           JUNCTION     0.30     1.25     7.40     0  02:09        1.22
  YS02001784           JUNCTION     0.31     1.17     7.23     0  02:25        1.17
  YS02001786           JUNCTION     0.26     0.90     6.93     0  02:09        0.87
  YS02001788           JUNCTION     0.19     0.62     6.60     0  02:13        0.62
  YS02001790           JUNCTION     0.22     0.72     6.37     0  02:13        0.72
  YS02001791           JUNCTION     0.14     0.44     5.91     0  02:13        0.43
  YS02001793           JUNCTION     0.08     0.25     5.09     0  02:13        0.25
  YS02001882           JUNCTION     0.37     1.78     8.49     0  02:25        1.63
  YS02001884           JUNCTION     0.46     1.84     8.46     0  02:25        1.72
  YS02001887           JUNCTION     0.53     1.86     8.40     0  02:25        1.81
  YS02001890           JUNCTION     0.56     1.81     8.32     0  02:09        1.81
  YS02001895           JUNCTION     0.34     1.75     8.50     0  02:25        1.75
  YS02001898           JUNCTION     0.35     1.77     8.51     0  02:25        1.77
  YS02001901           JUNCTION     0.46     1.73     8.34     0  02:25        1.67
  YS02001904           JUNCTION     0.44     1.68     8.31     0  02:25        1.64
  YS02001907           JUNCTION     0.74     1.96     8.25     0  02:09        1.96
  YS02001910           JUNCTION     0.55     1.99     8.49     0  02:10        1.83
  YS02001915           JUNCTION     0.38     1.94     8.66     0  02:10        1.67
  YS02001918           JUNCTION     0.21     1.81     8.88     0  02:10        1.35
  YS02001920           JUNCTION     0.29     2.10     9.11     0  02:10        1.45
  YS02001923           JUNCTION     0.16     2.03     9.29     0  02:10        1.21
  YS02001926           JUNCTION     0.19     1.90     9.35     0  02:10        1.02
  YS02001929           JUNCTION     0.11     1.78     9.47     0  02:10        0.79
  YS02006553           JUNCTION     0.75     1.97     8.26     0  02:12        1.97
  YS02006556           JUNCTION     0.72     1.94     8.25     0  02:12        1.94
  YS02006558           JUNCTION     0.76     1.99     8.26     0  02:12        1.99
  YS02006561           JUNCTION     0.19     0.94     7.60     0  02:09        0.88
  YS02163301           JUNCTION     0.54     1.93     8.45     0  02:11        1.90
  YS02163601           JUNCTION     0.62     2.06     8.46     0  02:11        2.01
  YS02164001           JUNCTION     0.55     1.98     8.44     0  02:11        1.94
  CC-1                 OUTFALL      0.00     0.00     0.00     0  00:00        0.00
  CC-2                 OUTFALL      0.00     0.00     0.00     0  00:00        0.00
  JK-1                 OUTFALL      0.00     0.00     0.00     0  00:00        0.00
  JK-2                 OUTFALL      0.00     0.00     0.00     0  00:00        0.00
  WSC                  OUTFALL      0.18     0.30     0.97     0  03:07        0.30
  CC-storage           STORAGE      0.16     0.80     6.30     0  00:00        0.76
  JK-storage           STORAGE      0.02     2.99     3.79     0  00:00        0.68
  
  
  *******************
  Node Inflow Summary
  *******************
  
  -------------------------------------------------------------------------------------------------
                                  Maximum  Maximum                  Lateral       Total        Flow
                                  Lateral    Total  Time of Max      Inflow      Inflow     Balance
                                   Inflow   Inflow   Occurrence      Volume      Volume       Error
  Node                 Type           LPS      LPS  days hr:min    10^6 ltr    10^6 ltr     Percent
  -------------------------------------------------------------------------------------------------
  WS02003060           JUNCTION     16.53   547.80     0  03:06       0.471        5.08       0.050
  WS02003066           JUNCTION      0.00   530.71     0  03:05           0        4.61       0.035
  WS02003067           JUNCTION      0.00   530.72     0  03:05           0        4.61       0.094
  WS02003069           JUNCTION      0.32   547.35     0  03:05     0.00912        5.08       0.093
  WS02003072           JUNCTION      0.00   546.98     0  03:05           0        5.08       0.163
  WS02003073           JUNCTION      1.82   548.76     0  03:07      0.0519        5.12       0.129
  WS02004401           JUNCTION      0.00   538.53     0  02:58           0        4.72       0.229
  WS02004402           JUNCTION      0.00   536.08     0  02:58           0        4.71       0.231
  WS02004403           JUNCTION      0.00   535.56     0  03:01           0         4.7       0.225
  WS02004404           JUNCTION      0.16   535.13     0  02:59     0.00462        4.69       0.194
  WS02004405           JUNCTION      0.04   535.31     0  02:59     0.00109        4.68       0.266
  WS02004406           JUNCTION      0.00   535.61     0  03:02           0        4.67       0.463
  WS02004407           JUNCTION      0.00   533.96     0  03:02           0        4.65       0.028
  WS02004409           JUNCTION      0.00   533.13     0  03:02           0        4.65       0.068
  WS02004410           JUNCTION      0.00   531.82     0  03:02           0        4.65       0.110
  WS02004411           JUNCTION      0.00   531.75     0  03:04           0        4.64       0.134
  WS02004412           JUNCTION      0.00   531.01     0  03:04           0        4.63       0.175
  WS02004413           JUNCTION      0.00   531.50     0  03:05           0        4.63       0.318
  WS02006109           JUNCTION      1.23   547.26     0  02:57      0.0351        4.77       0.157
  WS02006110           JUNCTION      0.00   547.77     0  02:57           0        4.76       0.152
  WS02006111           JUNCTION      0.00   564.10     0  02:58           0        4.75       0.029
  WS02006112           JUNCTION      0.00   544.46     0  02:58           0        4.75       0.442
  WS02006113           JUNCTION      0.00   558.30     0  02:56           0        4.75       0.039
  WS02006115           JUNCTION      0.00   549.53     0  02:55           0        4.73       0.160
  WS02006116           JUNCTION      0.00   538.42     0  02:58           0        4.72       0.069
  WS02006228           JUNCTION      0.00   545.34     0  02:57           0        4.74       0.068
  WS02006229           JUNCTION      0.00   544.79     0  02:58           0        4.74       0.145
  WS02006230           JUNCTION     10.28   580.32     0  02:56       0.293        4.75       0.103
  WS02006231           JUNCTION      0.00   561.88     0  02:56           0        4.45      -0.053
  WS02006232           JUNCTION      0.00   557.83     0  02:56           0        4.47       0.266
  WS02006234           JUNCTION      0.00   557.09     0  01:45           0        4.45      -0.430
  WS02006235           JUNCTION      0.00   581.69     0  01:42           0         4.6       0.111
  WS02006238           JUNCTION      0.00   426.25     0  03:14           0        3.51      -0.470
  WS02006239           JUNCTION      0.00   421.56     0  03:15           0        3.37      -0.545
  WS02006240           JUNCTION      0.00   414.21     0  03:15           0        3.32      -0.313
  WS02006242           JUNCTION      0.00   418.46     0  03:15           0        3.32      -0.074
  WS02006243           JUNCTION      0.00   448.17     0  01:57           0        3.31      -0.105
  WS02006245           JUNCTION      0.00   575.55     0  01:49           0        3.34       0.975
  WS02006247           JUNCTION      0.00   501.89     0  01:49           0        3.34      -0.263
  WS02006248           JUNCTION      0.00   558.26     0  01:49           0        3.35       0.113
  WS02006249           JUNCTION      0.00   525.43     0  01:56           0         3.5       0.750
  WS02006251           JUNCTION      0.08   437.24     0  01:53     0.00219        3.51       0.066
  WS02006252           JUNCTION      0.00   400.00     0  00:00           0        3.49      -0.279
  WS02006256           JUNCTION      0.00   308.68     0  03:18           0        1.54     -13.875
  WSF200               JUNCTION      0.00   530.79     0  03:05           0        4.61       0.013
  YS02001580           JUNCTION      0.00    88.69     0  02:06           0     0.00403      -0.906
  YS02001583           JUNCTION      0.00   148.04     0  02:05           0      0.0151      -4.215
  YS02001586           JUNCTION    530.88   531.01     0  02:15        1.31        1.32       0.092
  YS02001590           JUNCTION      0.00   320.38     0  02:25           0        1.16      -0.033
  YS02001593           JUNCTION      0.00   321.45     0  02:25           0        1.16       0.020
  YS02001596           JUNCTION      0.00   317.85     0  02:25           0        1.16       0.005
  YS02001600           JUNCTION      0.00   317.91     0  02:21           0        1.16       0.023
  YS02001601           JUNCTION    956.08  1273.59     0  02:14        1.84        3.01       0.033
  YS02001602           JUNCTION      0.00   511.39     0  02:36           0        2.13       0.025
  YS02001605           JUNCTION      0.00   511.42     0  02:36           0        2.06       0.028
  YS02001607           JUNCTION      0.00   511.40     0  02:36           0        2.06       0.100
  YS02001610           JUNCTION      0.00   512.16     0  02:36           0        2.09       0.118
  YS02001613           JUNCTION      0.00   511.83     0  02:36           0        1.82       0.100
  YS02001616           JUNCTION      0.00   512.13     0  02:36           0        1.82       0.029
  YS02001619           JUNCTION    942.90   950.47     0  02:28        2.09        3.88       0.002
  YS02001622           JUNCTION      0.00   950.42     0  02:28           0        3.85       0.006
  YS02001625           JUNCTION      0.00  1047.47     0  02:15           0        3.88       0.233
  YS02001629           JUNCTION      0.00   950.60     0  02:28           0        3.42       0.031
  YS02001633           JUNCTION    718.46  1378.22     0  02:09        1.34        4.71       0.077
  YS02001641           JUNCTION      0.00  1375.35     0  02:09           0        4.67       0.063
  YS02001644           JUNCTION    642.53  1782.69     0  02:09        1.16        5.82       0.060
  YS02001647           JUNCTION      0.00  1782.05     0  02:09           0        5.75       0.007
  YS02001649           JUNCTION      0.00  2007.63     0  02:09           0         6.8       0.007
  YS02001652           JUNCTION      0.00   755.17     0  02:13           0        1.05      -0.069
  YS02001655           JUNCTION      0.15   754.81     0  02:13     0.00439        1.05       0.063
  YS02001658           JUNCTION      0.00   753.98     0  02:13           0        1.05      -0.017
  YS02001661           JUNCTION      0.00   787.33     0  02:12           0        1.05       0.021
  YS02001664           JUNCTION    624.83   624.83     0  02:14        1.05        1.05      -0.006
  YS02001745           JUNCTION    399.63   399.63     0  02:13       0.642       0.642       0.121
  YS02001748           JUNCTION      0.04   556.89     0  02:12     0.00128       0.642      -0.192
  YS02001751           JUNCTION      0.01   439.82     0  02:12    0.000313       0.647       0.080
  YS02001754           JUNCTION      0.26   439.84     0  02:12     0.00741        0.66      -0.100
  YS02001757           JUNCTION      0.00  3269.21     0  02:15           0        9.71       0.012
  YS02001759           JUNCTION    554.67  1302.11     0  02:14       0.883        2.24      -0.002
  YS02001762           JUNCTION      0.00   771.53     0  02:14           0        1.36       0.004
  YS02001765           JUNCTION      0.00   771.43     0  02:14           0        1.36       0.009
  YS02001767           JUNCTION      0.54   771.36     0  02:14      0.0152        1.36       0.014
  YS02001770           JUNCTION    786.34   786.34     0  02:14        1.36         1.4      -0.006
  YS02001774           JUNCTION      0.00   278.72     0  02:10           0       0.067       1.827
  YS02001779           JUNCTION      0.01   282.46     0  02:10    0.000142      0.0261      -1.510
  YS02001783           JUNCTION      0.00  1157.91     0  02:12           0        3.62       0.008
  YS02001784           JUNCTION      1.06  1159.31     0  02:12      0.0302        3.65       0.015
  YS02001786           JUNCTION      0.06  1159.00     0  02:12      0.0016        3.65       0.019
  YS02001788           JUNCTION      0.07  1159.00     0  02:12     0.00202        3.65       0.008
  YS02001790           JUNCTION      0.15  1175.51     0  02:12     0.00442        3.65       0.004
  YS02001791           JUNCTION      0.00  1286.63     0  02:13           0        3.65       0.003
  YS02001793           JUNCTION      0.00  1252.66     0  02:13           0        3.65      -0.002
  YS02001882           JUNCTION      0.00    38.84     0  02:07           0      0.0124       5.951
  YS02001884           JUNCTION      0.00    75.50     0  02:07           0      0.0478       5.583
  YS02001887           JUNCTION    603.03   603.15     0  02:13       0.932       0.965       0.472
  YS02001890           JUNCTION      0.00   603.42     0  02:13           0       0.924       0.567
  YS02001895           JUNCTION      0.00   516.05     0  02:15           0       0.901       0.179
  YS02001898           JUNCTION      0.00   516.29     0  02:15           0         0.9       0.057
  YS02001901           JUNCTION      0.00   516.24     0  02:15           0       0.902       0.369
  YS02001904           JUNCTION      0.00   516.33     0  02:15           0       0.906       0.324
  YS02001907           JUNCTION      0.00  1594.32     0  02:14           0        2.95       0.620
  YS02001910           JUNCTION      0.00  1080.37     0  02:14           0        2.05       0.356
  YS02001915           JUNCTION    696.07  1080.18     0  02:14        1.29        2.08       0.089
  YS02001918           JUNCTION      0.00   437.49     0  02:11           0        0.82       0.046
  YS02001920           JUNCTION      2.87   436.91     0  02:11      0.0818       0.804       0.133
  YS02001923           JUNCTION      0.04   388.29     0  02:10     0.00107       0.707      -0.075
  YS02001926           JUNCTION      0.05   386.28     0  02:10     0.00149       0.688       0.056
  YS02001929           JUNCTION    338.00   362.42     0  02:10       0.678       0.678      -0.098
  YS02006553           JUNCTION      0.00   805.19     0  02:25           0        2.31       0.518
  YS02006556           JUNCTION      0.00   802.83     0  02:25           0        2.31       0.362
  YS02006558           JUNCTION    804.31  1158.86     0  02:12        1.36        3.65       0.092
  YS02006561           JUNCTION      0.00  1157.98     0  02:12           0        3.62       0.003
  YS02163301           JUNCTION      0.00   952.07     0  02:29           0        3.42       0.050
  YS02163601           JUNCTION      0.11  1377.40     0  02:09     0.00313        4.67       0.109
  YS02164001           JUNCTION      0.00  1376.78     0  02:09           0        4.67       0.056
  CC-1                 OUTFALL       0.00   683.00     0  00:00           0        4.22       0.000
  CC-2                 OUTFALL       0.00   683.00     0  00:00           0        4.22       0.000
  JK-1                 OUTFALL       0.00  1000.00     0  00:00           0        1.32       0.000
  JK-2                 OUTFALL       0.00  1000.00     0  00:00           0        1.32       0.000
  WSC                  OUTFALL       0.00   548.75     0  03:07           0        5.11       0.000
  CC-storage           STORAGE       0.00  3268.48     0  02:15           0        11.9      -0.366
  JK-storage           STORAGE       0.00  1296.90     0  02:13           0         3.8      -8.547
  
  
  **********************
  Node Surcharge Summary
  **********************
  
  Surcharging occurs when water rises above the top of the highest conduit.
  ---------------------------------------------------------------------
                                               Max. Height   Min. Depth
                                   Hours       Above Crown    Below Rim
  Node                 Type      Surcharged         Meters       Meters
  ---------------------------------------------------------------------
  WS02006109           JUNCTION        1.73          0.219        1.601
  WS02006110           JUNCTION        0.09          0.064        1.786
  WS02006112           JUNCTION        1.12          0.057        1.623
  WS02006228           JUNCTION        1.72          0.262        1.938
  WS02006229           JUNCTION        1.75          0.294        2.156
  WS02006230           JUNCTION        0.08          0.127        1.443
  WS02006231           JUNCTION        0.97          0.777        0.753
  WS02006232           JUNCTION        1.84          1.191        0.289
  WS02006234           JUNCTION        1.43          1.240        0.000
  WS02006235           JUNCTION        1.65          1.290        0.000
  WS02006238           JUNCTION        1.78          1.430        0.000
  WS02006239           JUNCTION        1.69          1.290        0.000
  WS02006240           JUNCTION        1.66          1.390        0.000
  WS02006242           JUNCTION        1.82          0.820        0.000
  WS02006243           JUNCTION        1.62          0.770        0.000
  WS02006245           JUNCTION        1.59          0.850        0.000
  WS02006247           JUNCTION        1.64          0.760        0.000
  WS02006248           JUNCTION        1.56          0.380        0.000
  WS02006249           JUNCTION        1.60          0.390        0.000
  WS02006251           JUNCTION        1.28          0.605        0.575
  WS02006252           JUNCTION        2.42          1.100        0.000
  WS02006256           JUNCTION        6.80          2.050        0.000
  YS02001580           JUNCTION        0.48          0.450        0.000
  YS02001583           JUNCTION        0.49          0.500        0.000
  YS02001586           JUNCTION        0.59          0.510        0.000
  YS02001590           JUNCTION        0.66          0.750        0.000
  YS02001593           JUNCTION        0.66          0.732        0.108
  YS02001596           JUNCTION        0.77          1.016        0.054
  YS02001600           JUNCTION        0.93          1.190        0.000
  YS02001601           JUNCTION        1.31          1.440        0.000
  YS02001602           JUNCTION        1.20          1.270        0.000
  YS02001605           JUNCTION        1.14          1.180        0.000
  YS02001607           JUNCTION        0.60          0.680        0.000
  YS02001610           JUNCTION        0.63          0.680        0.000
  YS02001613           JUNCTION        0.59          0.700        0.000
  YS02001616           JUNCTION        0.54          0.597        0.013
  YS02001619           JUNCTION        0.53          0.578        0.032
  YS02001622           JUNCTION        0.52          0.558        0.062
  YS02001625           JUNCTION        0.72          0.780        0.000
  YS02001629           JUNCTION        0.42          0.470        0.000
  YS02001633           JUNCTION        0.72          1.019        0.041
  YS02001641           JUNCTION        0.60          0.963        0.137
  YS02001644           JUNCTION        0.54          0.920        0.000
  YS02001647           JUNCTION        0.30          0.824        0.076
  YS02001649           JUNCTION        0.32          1.026        0.024
  YS02001652           JUNCTION        0.22          0.981        0.149
  YS02001655           JUNCTION        0.16          0.905        0.295
  YS02001658           JUNCTION        0.09          0.963        0.337
  YS02001661           JUNCTION        0.01          0.512        0.878
  YS02001748           JUNCTION        0.02          0.989        0.201
  YS02001751           JUNCTION        0.11          0.816        0.384
  YS02001754           JUNCTION        0.16          0.944        0.206
  YS02001757           JUNCTION        0.31          1.063        0.147
  YS02001759           JUNCTION        0.27          1.035        0.175
  YS02001762           JUNCTION        0.25          1.036        0.114
  YS02001765           JUNCTION        0.24          1.001        0.099
  YS02001767           JUNCTION        0.23          0.980        0.050
  YS02001770           JUNCTION        0.22          0.920        0.000
  YS02001774           JUNCTION        0.26          1.007        0.043
  YS02001779           JUNCTION        0.18          0.680        0.000
  YS02001783           JUNCTION        0.45          0.454        1.146
  YS02001784           JUNCTION        0.42          0.366        1.124
  YS02001786           JUNCTION        0.32          0.099        1.331
  YS02001882           JUNCTION        0.39          0.777        0.053
  YS02001884           JUNCTION        0.40          0.784        0.086
  YS02001887           JUNCTION        0.44          0.810        0.140
  YS02001890           JUNCTION        0.45          0.760        0.000
  YS02001895           JUNCTION        0.38          0.750        0.000
  YS02001898           JUNCTION        0.37          0.740        0.000
  YS02001901           JUNCTION        0.42          0.727        0.143
  YS02001904           JUNCTION        0.41          0.675        0.175
  YS02001907           JUNCTION        0.67          0.950        0.000
  YS02001910           JUNCTION        0.48          0.986        0.114
  YS02001915           JUNCTION        0.39          0.941        0.059
  YS02001918           JUNCTION        0.31          0.810        0.000
  YS02001920           JUNCTION        0.32          1.103        0.037
  YS02001923           JUNCTION        0.01          0.820        0.000
  YS02001926           JUNCTION        0.02          0.900        0.000
  YS02001929           JUNCTION        0.01          0.780        0.000
  YS02006553           JUNCTION        0.68          0.975        0.215
  YS02006556           JUNCTION        0.57          0.900        0.450
  YS02006558           JUNCTION        0.56          0.888        0.512
  YS02006561           JUNCTION        0.26          0.138        1.012
  YS02163301           JUNCTION        0.70          0.930        0.100
  YS02163601           JUNCTION        0.76          1.064        0.016
  YS02164001           JUNCTION        0.62          0.979        0.121
  
  
  *********************
  Node Flooding Summary
  *********************
  
  Flooding refers to all water that overflows a node, whether it ponds or not.
  --------------------------------------------------------------------------
                                                             Total   Maximum
                                 Maximum   Time of Max       Flood    Ponded
                        Hours       Rate    Occurrence      Volume     Depth
  Node                 Flooded       LPS   days hr:min    10^6 ltr    Meters
  --------------------------------------------------------------------------
  WS02006234              0.01     53.57      0  03:05       0.000     0.000
  WS02006235              0.01     10.50      0  02:41       0.000     0.000
  WS02006238              0.01      9.30      0  02:41       0.000     0.000
  WS02006239              0.01      4.88      0  02:41       0.000     0.000
  WS02006240              0.01     17.52      0  01:45       0.000     0.000
  WS02006242              0.01    149.37      0  01:49       0.001     0.000
  WS02006243              0.01    144.34      0  01:52       0.000     0.000
  WS02006245              0.01      4.02      0  02:49       0.000     0.000
  WS02006247              0.01    236.95      0  01:49       0.000     0.000
  WS02006248              0.35    241.51      0  01:54       0.011     0.000
  WS02006249              1.18    220.60      0  01:56       0.121     0.000
  WS02006252              0.01    275.86      0  01:51       0.002     0.000
  WS02006256              1.40    293.19      0  00:00       0.672     0.000
  YS02001580              0.01     77.43      0  02:06       0.000     0.000
  YS02001583              0.01     38.80      0  02:06       0.000     0.000
  YS02001586              0.35    213.61      0  02:15       0.146     0.000
  YS02001590              0.01      5.05      0  02:06       0.000     0.000
  YS02001600              0.01      1.98      0  02:04       0.000     0.000
  YS02001601              0.51    875.72      0  02:14       0.875     0.000
  YS02001602              0.34     61.89      0  02:21       0.068     0.000
  YS02001605              0.01      3.02      0  02:25       0.000     0.000
  YS02001607              0.01      0.06      0  02:25       0.000     0.000
  YS02001610              0.29    433.92      0  02:16       0.297     0.000
  YS02001613              0.01      0.21      0  02:25       0.000     0.000
  YS02001625              0.25   1047.16      0  02:15       0.492     0.000
  YS02001629              0.06    112.35      0  02:13       0.013     0.000
  YS02001644              0.07    422.07      0  02:13       0.060     0.000
  YS02001770              0.01     16.15      0  02:12       0.000     0.000
  YS02001779              0.05    228.74      0  02:10       0.009     0.000
  YS02001890              0.10     95.85      0  02:13       0.018     0.000
  YS02001895              0.01      0.23      0  02:25       0.000     0.000
  YS02001898              0.01      0.28      0  02:25       0.000     0.000
  YS02001907              0.26   1232.30      0  02:14       0.631     0.000
  YS02001918              0.01     71.90      0  02:10       0.001     0.000
  YS02001923              0.01    232.21      0  02:10       0.000     0.000
  YS02001926              0.01     63.16      0  02:10       0.000     0.000
  YS02001929              0.01    302.45      0  02:10       0.001     0.000
  
  
  **********************
  Storage Volume Summary
  **********************
  
  ------------------------------------------------------------------------------------------------
                         Average    Avg   Evap  Exfil     Maximum    Max    Time of Max    Maximum
                          Volume   Pcnt   Pcnt   Pcnt      Volume   Pcnt     Occurrence    Outflow
  Storage Unit           1000 m³   Full   Loss   Loss     1000 m³   Full    days hr:min        LPS
  ------------------------------------------------------------------------------------------------
  CC-storage               0.445    6.9    0.0    0.0       2.229   34.8       0  00:00    1783.53
  JK-storage               0.001    0.4    0.0    0.0       0.150   51.6       0  00:00    2300.00
  
  
  ***********************
  Outfall Loading Summary
  ***********************
  
  -----------------------------------------------------------
                         Flow       Avg       Max       Total
                         Freq      Flow      Flow      Volume
  Outfall Node           Pcnt       LPS       LPS    10^6 ltr
  -----------------------------------------------------------
  CC-1                  40.14    683.00    683.00       4.221
  CC-2                  40.14    683.00    683.00       4.221
  JK-1                   9.89    998.09   1000.00       1.321
  JK-2                   9.89    998.09   1000.00       1.321
  WSC                   99.95    260.57    548.75       5.115
  -----------------------------------------------------------
  System                40.00   3622.76   3896.78      16.198
  
  
  ********************
  Link Flow Summary
  ********************
  
  -----------------------------------------------------------------------------
                                 Maximum  Time of Max   Maximum    Max/    Max/
                                  |Flow|   Occurrence   |Veloc|    Full    Full
  Link                 Type          LPS  days hr:min     m/sec    Flow   Depth
  -----------------------------------------------------------------------------
  1                    CONDUIT    548.75     0  03:07      2.82    0.19    0.30
  WS02003060WS02003069 CONDUIT    547.03     0  03:05      1.64    0.21    0.34
  WS02003066WSF200     CONDUIT    530.79     0  03:05      2.85    0.09    0.22
  WS02003067WS02003066 CONDUIT    530.71     0  03:05      1.20    0.17    0.41
  WS02003069WS02003072 CONDUIT    546.98     0  03:05      1.36    0.26    0.38
  WS02003072WS02003073 CONDUIT    546.94     0  03:07      1.43    1.18    0.37
  WS02004401WS02004402 CONDUIT    536.08     0  02:58      1.22    0.64    0.86
  WS02004402WS02004403 CONDUIT    535.56     0  03:01      1.24    0.77    0.88
  WS02004403WS02004404 CONDUIT    534.96     0  02:59      1.24    0.39    0.93
  WS02004404WS02004405 CONDUIT    535.28     0  02:59      1.45    5.24    0.96
  WS02004405WS02004406 CONDUIT    535.61     0  03:02      1.46    1.06    0.95
  WS02004406WS02004407 CONDUIT    533.96     0  03:02      1.04    0.24    0.62
  WS02004407WS02004409 CONDUIT    533.13     0  03:02      1.59    0.19    0.48
  WS02004409WS02004410 CONDUIT    531.82     0  03:02      1.06    0.69    0.67
  WS02004410WS02004411 CONDUIT    531.75     0  03:04      1.12    0.73    0.68
  WS02004411WS02004412 CONDUIT    531.01     0  03:04      1.22    0.75    0.69
  WS02004412WS02004413 CONDUIT    531.50     0  03:05      1.22    0.36    0.77
  WS02004413WS02003067 CONDUIT    530.72     0  03:05      1.10    0.23    0.59
  WS02006109WS02006110 CONDUIT    547.77     0  02:57      1.09    1.05    1.00
  WS02006110WS02006113 CONDUIT    558.30     0  02:56      1.32    0.51    0.79
  WS02006111WS02006112 CONDUIT    544.46     0  02:58      1.95    0.26    0.67
  WS02006112WS02006115 CONDUIT    549.53     0  02:55      0.83    0.32    0.87
  WS02006113WS02006111 CONDUIT    564.10     0  02:58      2.47    0.68    0.46
  WS02006115WS02006116 CONDUIT    538.42     0  02:58      1.29    0.69    0.76
  WS02006116WS02004401 CONDUIT    538.53     0  02:58      1.21    0.74    0.84
  WS02006228WS02006109 CONDUIT    546.03     0  02:57      1.09    2.39    1.00
  WS02006229WS02006228 CONDUIT    545.34     0  02:57      1.12    1.81    1.00
  WS02006230WS02006229 CONDUIT    544.79     0  02:58      1.42   12.12    1.00
  WS02006231WS02006230 CONDUIT    570.04     0  02:56      1.50    8.65    1.00
  WS02006232WS02006231 CONDUIT    561.88     0  02:56      1.46    1.18    1.00
  WS02006234WS02006232 CONDUIT    557.83     0  02:56      1.45    1.13    1.00
  WS02006235WS02006234 CONDUIT    557.09     0  01:45      1.45    5.88    1.00
  WS02006238WS02006235 CONDUIT    441.87     0  03:09      1.45    0.99    1.00
  WS02006239WS02006238 CONDUIT    426.25     0  03:14      1.11    1.36    1.00
  WS02006240WS02006239 CONDUIT    421.56     0  03:15      1.24    1.33    1.00
  WS02006242WS02006240 CONDUIT    414.21     0  03:15      1.16    1.65    1.00
  WS02006243WS02006242 CONDUIT    418.46     0  03:15      1.44    0.89    1.00
  WS02006245WS02006243 CONDUIT    448.17     0  01:57      1.44    1.33    1.00
  WS02006247WS02006245 CONDUIT    575.55     0  01:49      1.53    4.56    1.00
  WS02006248WS02006247 CONDUIT    501.89     0  01:49      1.45    1.09    1.00
  WS02006249WS02006248 CONDUIT    558.26     0  01:49      1.48    3.06    1.00
  WS02006251WS02006249 CONDUIT    525.43     0  01:56      1.99    1.52    1.00
  WS02006252WS02006251 CONDUIT    412.75     0  01:52     17.88    1.52    1.00
  WS02006256WS02006235 CONDUIT    288.91     0  00:00      4.23    3.06    1.00
  WSF200WS02003060     CONDUIT    531.27     0  03:06      2.06    0.12    0.28
  YS02001580YS02001583 CONDUIT     88.69     0  02:06      0.61    0.34    1.00
  YS02001583YS02001586 CONDUIT    148.04     0  02:05      0.62    0.22    1.00
  YS02001586YS02001590 CONDUIT    320.38     0  02:25      1.25    0.56    1.00
  YS02001590YS02001593 CONDUIT    321.45     0  02:25      1.14    2.02    1.00
  YS02001593YS02001596 CONDUIT    317.85     0  02:25      1.75    0.50    1.00
  YS02001596YS02001600 CONDUIT    317.91     0  02:21      1.23    0.62    1.00
  YS02001600YS02001601 CONDUIT    317.96     0  02:25      1.12    0.55    1.00
  YS02001601YS02001602 CONDUIT    511.39     0  02:36      1.81    1.85    1.00
  YS02001602YS02001605 CONDUIT    511.42     0  02:36      1.81   10.82    1.00
  YS02001605YS02001607 CONDUIT    511.40     0  02:36      1.81    2.80    1.00
  YS02001607YS02001610 CONDUIT    512.16     0  02:36      0.65    0.49    1.00
  YS02001610YS02001613 CONDUIT    511.83     0  02:36      0.65    0.59    1.00
  YS02001613YS02001616 CONDUIT    512.13     0  02:36      0.66    0.44    1.00
  YS02001616YS02001619 CONDUIT    512.41     0  02:36      0.68    0.89    1.00
  YS02001619YS02001622 CONDUIT    950.42     0  02:28      1.21    1.40    1.00
  YS02001622YS02001625 CONDUIT    950.75     0  02:28      1.21    0.51    1.00
  YS02001625YS02001629 CONDUIT    950.60     0  02:28      1.21    0.45    1.00
  YS02001629YS02163301 CONDUIT    952.07     0  02:29      1.21    1.17    1.00
  YS02001633YS02163601 CONDUIT   1377.29     0  02:09      1.75    1.45    1.00
  YS02001641YS02001644 CONDUIT   1374.77     0  02:09      1.75    4.44    1.00
  YS02001644YS02001647 CONDUIT   1782.05     0  02:09      2.27    1.05    1.00
  YS02001647YS02001649 CONDUIT   1792.06     0  02:09      2.31    0.95    1.00
  YS02001649YS02001757 CONDUIT   2006.58     0  02:10      2.55    1.22    1.00
  YS02001652YS02001649 CONDUIT    755.83     0  02:13      0.96    0.37    1.00
  YS02001655YS02001652 CONDUIT    755.17     0  02:13      1.25    0.37    1.00
  YS02001658YS02001655 CONDUIT    754.66     0  02:13      1.86    0.32    1.00
  YS02001661YS02001658 CONDUIT    753.98     0  02:13      2.30    0.30    1.00
  YS02001664YS02001661 CONDUIT    787.33     0  02:12      2.30    0.25    0.78
  YS02001745YS02001748 CONDUIT    556.84     0  02:12      2.17    0.21    0.87
  YS02001748YS02001751 CONDUIT    439.81     0  02:12      1.69    0.22    1.00
  YS02001751YS02001754 CONDUIT    439.58     0  02:12      1.35    0.21    1.00
  YS02001754YS02001757 CONDUIT    440.25     0  02:12      0.56    0.18    1.00
  YS02001757CaochengTiaoxuchi CONDUIT   3268.48     0  02:15      6.90    1.41    0.78
  YS02001759YS02001757 CONDUIT   1302.25     0  02:14      1.66    0.93    1.00
  YS02001762YS02001759 CONDUIT    772.05     0  02:14      0.98    0.89    1.00
  YS02001765YS02001762 CONDUIT    771.53     0  02:14      0.98    0.72    1.00
  YS02001767YS02001765 CONDUIT    771.43     0  02:14      0.98    0.97    1.00
  YS02001770YS02001767 CONDUIT    770.82     0  02:14      0.98    3.05    1.00
  YS02001774YS02001770 CONDUIT    278.72     0  02:10      0.35    0.18    1.00
  YS02001779YS02001774 CONDUIT    282.45     0  02:10      0.36    0.14    1.00
  YS02001783YS02001784 CONDUIT   1158.25     0  02:12      2.30    1.60    1.00
  YS02001784YS02001785 CONDUIT   1158.94     0  02:12      2.31    2.70    1.00
  YS02001786YS02001788 CONDUIT   1158.93     0  02:12      2.47    2.23    0.89
  YS02001788YS02001790 CONDUIT   1175.36     0  02:12      2.73    0.87    0.84
  YS02001790YS02001791 CONDUIT   1286.63     0  02:13      3.42    1.40    0.70
  YS02001791YS02001793 CONDUIT   1252.66     0  02:13      6.38    0.54    0.43
  YS02001793JiankangQianchi CONDUIT   1296.90     0  02:13     23.83    0.10    0.50
  YS02001882YS02001884 CONDUIT     38.84     0  02:07      0.11    0.04    1.00
  YS02001884YS02001887 CONDUIT     75.50     0  02:07      0.10    0.10    1.00
  YS02001887YS02001890 CONDUIT    603.42     0  02:13      0.77    1.03    1.00
  YS02001890YS02001895 CONDUIT    516.05     0  02:15      0.66    0.24    1.00
  YS02001895YS02001898 CONDUIT    516.29     0  02:15      0.66    0.90    1.00
  YS02001898YS02001901 CONDUIT    516.24     0  02:15      0.66    0.33    1.00
  YS02001901YS02001904 CONDUIT    516.33     0  02:15      0.66    0.80    1.00
  YS02001904YS02001907 CONDUIT    516.54     0  02:15      0.66    0.18    1.00
  YS02001907YS02006553 CONDUIT    805.19     0  02:25      0.89    0.95    1.00
  YS02001910YS02001907 CONDUIT   1080.26     0  02:14      1.38    0.61    1.00
  YS02001915YS02001910 CONDUIT   1080.37     0  02:14      1.38    0.54    1.00
  YS02001918YS02001915 CONDUIT    437.26     0  02:11      0.56    0.24    1.00
  YS02001920YS02001918 CONDUIT    437.49     0  02:11      0.65    0.42    1.00
  YS02001923YS02001920 CONDUIT    434.04     0  02:11      0.69    0.19    1.00
  YS02001926YS02001923 CONDUIT    388.26     0  02:10      0.96    0.55    1.00
  YS02001929YS02001926 CONDUIT    382.38     0  02:10      1.11    0.18    1.00
  YS02006553YS02006556 CONDUIT    802.83     0  02:25      1.02    0.69    1.00
  YS02006556YS02006558 CONDUIT    801.28     0  02:25      1.02    0.63    1.00
  YS02006558YS02006561 CONDUIT   1157.98     0  02:12      4.10    2.56    1.00
  YS02006561YS02001783 CONDUIT   1157.91     0  02:12      2.30    0.60    1.00
  YS02163301YS02001633 CONDUIT    951.95     0  02:29      1.21    0.89    1.00
  YS02163601YS02164001 CONDUIT   1376.78     0  02:09      1.75    1.22    1.00
  YS02164001YS02001641 CONDUIT   1375.35     0  02:09      1.75    1.88    1.00
  CC-R1                PUMP       683.00     0  00:00              1.00
  CC-R2                PUMP       683.00     0  00:00              1.00
  CC-S1                PUMP       200.00     0  00:00              1.00
  CC-S2                PUMP       200.00     0  00:00              1.00
  JK-R1                PUMP      1000.00     0  00:00              1.00
  JK-R2                PUMP      1000.00     0  00:00              1.00
  JK-S                 PUMP       300.00     0  00:00              1.00
  
  
  ***************************
  Flow Classification Summary
  ***************************
  
  -------------------------------------------------------------------------------------
                      Adjusted    ---------- Fraction of Time in Flow Class ---------- 
                       /Actual         Up    Down  Sub   Sup   Up    Down  Norm  Inlet 
  Conduit               Length    Dry  Dry   Dry   Crit  Crit  Crit  Crit  Ltd   Ctrl  
  -------------------------------------------------------------------------------------
  1                       1.00   0.00  0.00  0.00  0.00  1.00  0.00  0.00  0.31  0.00
  WS02003060WS02003069    1.00   0.00  0.00  0.00  0.98  0.02  0.00  0.00  0.74  0.00
  WS02003066WSF200        1.00   0.05  0.00  0.00  0.00  0.95  0.00  0.00  0.88  0.00
  WS02003067WS02003066    1.00   0.05  0.00  0.00  0.95  0.00  0.00  0.00  0.00  0.00
  WS02003069WS02003072    1.00   0.00  0.00  0.00  0.99  0.01  0.00  0.00  0.77  0.00
  WS02003072WS02003073    1.00   0.00  0.00  0.00  0.00  0.00  0.00  1.00  0.00  0.00
  WS02004401WS02004402    1.00   0.02  0.00  0.00  0.98  0.00  0.00  0.00  0.00  0.00
  WS02004402WS02004403    1.00   0.02  0.00  0.00  0.98  0.00  0.00  0.00  0.00  0.00
  WS02004403WS02004404    1.00   0.00  0.03  0.00  0.97  0.00  0.00  0.00  0.00  0.00
  WS02004404WS02004405    1.00   0.00  0.00  0.00  1.00  0.00  0.00  0.00  0.01  0.00
  WS02004405WS02004406    1.00   0.00  0.00  0.00  1.00  0.00  0.00  0.00  0.00  0.00
  WS02004406WS02004407    1.00   0.00  0.03  0.00  0.97  0.00  0.00  0.00  0.00  0.00
  WS02004407WS02004409    1.00   0.03  0.00  0.00  0.95  0.01  0.00  0.00  0.95  0.00
  WS02004409WS02004410    1.00   0.03  0.00  0.00  0.96  0.00  0.00  0.00  0.00  0.00
  WS02004410WS02004411    1.00   0.04  0.00  0.00  0.96  0.00  0.00  0.00  0.00  0.00
  WS02004411WS02004412    1.00   0.04  0.00  0.00  0.96  0.00  0.00  0.00  0.00  0.00
  WS02004412WS02004413    1.00   0.04  0.00  0.00  0.96  0.00  0.00  0.00  0.00  0.00
  WS02004413WS02003067    1.00   0.04  0.01  0.00  0.00  0.00  0.95  0.00  0.00  0.00
  WS02006109WS02006110    1.00   0.00  0.01  0.00  0.98  0.00  0.01  0.00  0.00  0.00
  WS02006110WS02006113    1.00   0.01  0.01  0.00  0.98  0.00  0.00  0.00  0.00  0.00
  WS02006111WS02006112    1.00   0.02  0.00  0.00  0.98  0.00  0.00  0.00  0.98  0.00
  WS02006112WS02006115    1.00   0.02  0.00  0.00  0.97  0.00  0.00  0.00  0.00  0.00
  WS02006113WS02006111    1.00   0.02  0.00  0.00  0.00  0.98  0.00  0.00  0.14  0.00
  WS02006115WS02006116    1.00   0.02  0.00  0.00  0.97  0.00  0.00  0.01  0.00  0.00
  WS02006116WS02004401    1.00   0.02  0.00  0.00  0.98  0.00  0.00  0.00  0.00  0.00
  WS02006228WS02006109    1.00   0.00  0.00  0.00  1.00  0.00  0.00  0.00  0.01  0.00
  WS02006229WS02006228    1.00   0.00  0.00  0.00  0.99  0.00  0.00  0.01  0.00  0.00
  WS02006230WS02006229    1.00   0.00  0.00  0.00  0.99  0.00  0.00  0.01  0.02  0.00
  WS02006231WS02006230    1.00   0.00  0.00  0.00  0.25  0.00  0.75  0.00  0.00  0.00
  WS02006232WS02006231    1.00   0.00  0.00  0.00  0.99  0.00  0.01  0.00  0.00  0.00
  WS02006234WS02006232    1.00   0.00  0.00  0.00  1.00  0.00  0.00  0.00  0.02  0.00
  WS02006235WS02006234    1.00   0.00  0.00  0.00  0.94  0.00  0.06  0.00  0.00  0.00
  WS02006238WS02006235    1.00   0.00  0.00  0.00  1.00  0.00  0.00  0.00  0.01  0.00
  WS02006239WS02006238    1.00   0.00  0.00  0.00  1.00  0.00  0.00  0.00  0.07  0.00
  WS02006240WS02006239    1.00   0.00  0.00  0.00  0.91  0.00  0.00  0.09  0.21  0.00
  WS02006242WS02006240    1.00   0.00  0.00  0.00  0.93  0.00  0.07  0.00  0.00  0.00
  WS02006243WS02006242    1.00   0.00  0.00  0.00  0.98  0.00  0.00  0.02  0.58  0.00
  WS02006245WS02006243    1.00   0.00  0.00  0.00  0.71  0.00  0.00  0.29  0.01  0.00
  WS02006247WS02006245    1.00   0.00  0.00  0.00  0.97  0.00  0.00  0.02  0.00  0.00
  WS02006248WS02006247    1.00   0.00  0.00  0.00  0.98  0.00  0.00  0.02  0.34  0.00
  WS02006249WS02006248    1.00   0.00  0.00  0.00  0.44  0.00  0.56  0.00  0.00  0.00
  WS02006251WS02006249    1.00   0.00  0.00  0.00  0.99  0.01  0.00  0.00  0.58  0.00
  WS02006252WS02006251    1.00   0.01  0.41  0.00  0.16  0.00  0.42  0.00  0.00  0.00
  WS02006256WS02006235    1.00   0.00  0.00  0.00  0.96  0.04  0.00  0.00  0.01  0.00
  WSF200WS02003060        1.00   0.00  0.05  0.00  0.25  0.70  0.00  0.00  0.66  0.00
  YS02001580YS02001583    1.00   0.26  0.56  0.00  0.18  0.00  0.00  0.00  0.66  0.00
  YS02001583YS02001586    1.00   0.41  0.35  0.00  0.23  0.00  0.00  0.00  0.66  0.00
  YS02001586YS02001590    1.00   0.13  0.00  0.00  0.43  0.04  0.00  0.40  0.38  0.00
  YS02001590YS02001593    1.00   0.13  0.01  0.00  0.10  0.00  0.77  0.00  0.00  0.00
  YS02001593YS02001596    1.00   0.14  0.00  0.00  0.12  0.01  0.00  0.74  0.02  0.00
  YS02001596YS02001600    1.00   0.14  0.00  0.00  0.19  0.01  0.00  0.66  0.05  0.00
  YS02001600YS02001601    1.00   0.13  0.01  0.00  0.86  0.00  0.00  0.00  0.61  0.00
  YS02001601YS02001602    1.00   0.13  0.01  0.00  0.86  0.00  0.00  0.00  0.00  0.00
  YS02001602YS02001605    1.00   0.14  0.00  0.00  0.86  0.00  0.00  0.00  0.00  0.00
  YS02001605YS02001607    1.00   0.14  0.00  0.00  0.86  0.00  0.00  0.00  0.00  0.00
  YS02001607YS02001610    1.00   0.13  0.01  0.00  0.86  0.00  0.00  0.00  0.02  0.00
  YS02001610YS02001613    1.00   0.13  0.00  0.00  0.87  0.00  0.00  0.00  0.01  0.00
  YS02001613YS02001616    1.00   0.13  0.00  0.00  0.87  0.00  0.00  0.00  0.01  0.00
  YS02001616YS02001619    1.00   0.13  0.00  0.00  0.87  0.00  0.00  0.00  0.00  0.00
  YS02001619YS02001622    1.00   0.13  0.00  0.00  0.87  0.00  0.00  0.00  0.28  0.00
  YS02001622YS02001625    1.00   0.13  0.00  0.00  0.87  0.00  0.00  0.00  0.05  0.00
  YS02001625YS02001629    1.00   0.13  0.05  0.00  0.14  0.00  0.67  0.00  0.00  0.00
  YS02001629YS02163301    1.00   0.16  0.01  0.00  0.83  0.00  0.00  0.00  0.00  0.00
  YS02001633YS02163601    1.00   0.00  0.01  0.00  0.99  0.00  0.00  0.00  0.15  0.00
  YS02001641YS02001644    1.00   0.00  0.01  0.00  0.99  0.00  0.00  0.00  0.00  0.00
  YS02001644YS02001647    1.00   0.00  0.18  0.00  0.82  0.00  0.00  0.00  0.00  0.00
  YS02001647YS02001649    1.00   0.00  0.18  0.00  0.50  0.32  0.00  0.00  0.56  0.00
  YS02001649YS02001757    1.00   0.00  0.00  0.00  0.84  0.16  0.00  0.00  0.74  0.00
  YS02001652YS02001649    1.00   0.00  0.00  0.00  0.96  0.04  0.00  0.00  0.75  0.00
  YS02001655YS02001652    1.00   0.00  0.00  0.00  0.17  0.02  0.00  0.82  0.10  0.00
  YS02001658YS02001655    1.00   0.00  0.14  0.00  0.59  0.27  0.00  0.00  0.75  0.00
  YS02001661YS02001658    1.00   0.14  0.00  0.00  0.43  0.43  0.00  0.00  0.73  0.00
  YS02001664YS02001661    1.00   0.13  0.00  0.00  0.74  0.13  0.00  0.00  0.86  0.00
  YS02001745YS02001748    1.00   0.00  0.00  0.00  0.03  0.01  0.00  0.97  0.02  0.00
  YS02001748YS02001751    1.00   0.00  0.00  0.00  0.75  0.25  0.00  0.00  0.82  0.00
  YS02001751YS02001754    1.00   0.00  0.00  0.00  0.10  0.01  0.00  0.89  0.05  0.00
  YS02001754YS02001757    1.00   0.00  0.00  0.00  1.00  0.00  0.00  0.00  0.87  0.00
  YS02001757CaochengTiaoxuchi    1.00   0.00  0.00  0.00  0.04  0.96  0.00  0.00  0.11  0.00
  YS02001759YS02001757    1.00   0.00  0.00  0.00  1.00  0.00  0.00  0.00  0.66  0.00
  YS02001762YS02001759    1.00   0.00  0.00  0.00  1.00  0.00  0.00  0.00  0.06  0.00
  YS02001765YS02001762    1.00   0.00  0.00  0.00  1.00  0.00  0.00  0.00  0.73  0.00
  YS02001767YS02001765    1.00   0.00  0.00  0.00  1.00  0.00  0.00  0.00  0.00  0.00
  YS02001770YS02001767    1.00   0.00  0.00  0.00  1.00  0.00  0.00  0.00  0.00  0.00
  YS02001774YS02001770    1.00   0.00  0.13  0.00  0.70  0.00  0.16  0.00  0.03  0.00
  YS02001779YS02001774    1.00   0.00  0.00  0.00  1.00  0.00  0.00  0.00  0.80  0.00
  YS02001783YS02001784    1.00   0.00  0.19  0.00  0.81  0.00  0.00  0.00  0.55  0.00
  YS02001784YS02001785    1.00   0.00  0.00  0.00  1.00  0.00  0.00  0.00  0.18  0.00
  YS02001786YS02001788    1.00   0.00  0.00  0.00  0.79  0.21  0.00  0.00  0.00  0.00
  YS02001788YS02001790    1.00   0.00  0.00  0.00  0.21  0.79  0.00  0.00  0.81  0.00
  YS02001790YS02001791    1.00   0.00  0.00  0.00  0.01  0.99  0.00  0.00  0.16  0.00
  YS02001791YS02001793    1.00   0.00  0.00  0.00  0.00  1.00  0.00  0.00  0.01  0.00
  YS02001793JiankangQianchi    1.00   0.00  0.00  0.00  0.00  1.00  0.00  0.00  0.21  0.00
  YS02001882YS02001884    1.00   0.15  0.01  0.00  0.83  0.00  0.00  0.00  0.00  0.00
  YS02001884YS02001887    1.00   0.06  0.05  0.00  0.89  0.00  0.00  0.00  0.00  0.00
  YS02001887YS02001890    1.00   0.00  0.00  0.00  0.97  0.00  0.03  0.00  0.00  0.00
  YS02001890YS02001895    1.00   0.00  0.17  0.00  0.83  0.00  0.00  0.00  0.00  0.00
  YS02001895YS02001898    1.00   0.17  0.00  0.00  0.81  0.00  0.02  0.00  0.00  0.00
  YS02001898YS02001901    1.00   0.17  0.00  0.00  0.83  0.00  0.00  0.00  0.01  0.00
  YS02001901YS02001904    1.00   0.17  0.00  0.00  0.83  0.00  0.00  0.00  0.00  0.00
  YS02001904YS02001907    1.00   0.00  0.17  0.00  0.83  0.00  0.00  0.00  0.00  0.00
  YS02001907YS02006553    1.00   0.00  0.02  0.00  0.98  0.00  0.00  0.00  0.00  0.00
  YS02001910YS02001907    1.00   0.00  0.00  0.00  0.97  0.00  0.00  0.03  0.12  0.00
  YS02001915YS02001910    1.00   0.00  0.00  0.00  0.96  0.04  0.00  0.00  0.17  0.00
  YS02001918YS02001915    1.00   0.00  0.01  0.00  0.98  0.02  0.00  0.00  0.76  0.00
  YS02001920YS02001918    1.00   0.00  0.01  0.00  0.99  0.00  0.00  0.00  0.00  0.00
  YS02001923YS02001920    1.00   0.00  0.00  0.00  1.00  0.00  0.00  0.00  0.93  0.00
  YS02001926YS02001923    1.00   0.00  0.07  0.00  0.05  0.00  0.88  0.00  0.00  0.00
  YS02001929YS02001926    1.00   0.00  0.13  0.00  0.87  0.00  0.00  0.00  0.83  0.00
  YS02006553YS02006556    1.00   0.01  0.00  0.00  0.99  0.00  0.00  0.00  0.03  0.00
  YS02006556YS02006558    1.00   0.00  0.00  0.00  1.00  0.00  0.00  0.00  0.00  0.00
  YS02006558YS02006561    1.00   0.19  0.00  0.00  0.05  0.77  0.00  0.00  0.19  0.00
  YS02006561YS02001783    1.00   0.19  0.00  0.00  0.08  0.73  0.00  0.00  0.69  0.00
  YS02163301YS02001633    1.00   0.00  0.16  0.00  0.84  0.00  0.00  0.00  0.00  0.00
  YS02163601YS02164001    1.00   0.00  0.08  0.00  0.92  0.00  0.00  0.00  0.00  0.00
  YS02164001YS02001641    1.00   0.01  0.08  0.00  0.92  0.00  0.00  0.00  0.06  0.00
  
  
  *************************
  Conduit Surcharge Summary
  *************************
  
  ----------------------------------------------------------------------------
                                                           Hours        Hours 
                         --------- Hours Full --------   Above Full   Capacity
  Conduit                Both Ends  Upstream  Dnstream   Normal Flow   Limited
  ----------------------------------------------------------------------------
  WS02003072WS02003073        0.01      0.01      0.01      1.42         0.01
  WS02004404WS02004405        0.01      0.01      0.01      3.06         0.01
  WS02004405WS02004406        0.01      0.01      0.01      0.66         0.01
  WS02006109WS02006110        0.09      0.09      1.83      0.13         0.01
  WS02006110WS02006113        0.01      0.01      1.80      0.01         0.01
  WS02006111WS02006112        0.01      0.01      2.04      0.01         0.01
  WS02006112WS02006115        0.01      0.01      1.12      0.01         0.01
  WS02006228WS02006109        1.73      1.83      1.73      2.34         1.73
  WS02006229WS02006228        1.72      1.75      1.72      2.12         1.72
  WS02006230WS02006229        1.94      2.03      1.94      4.14         1.94
  WS02006231WS02006230        0.08      0.08      1.20      3.39         0.01
  WS02006232WS02006231        0.94      0.94      1.84      1.12         0.01
  WS02006234WS02006232        1.65      1.65      1.84      0.72         0.68
  WS02006235WS02006234        1.36      1.41      1.63      3.07         0.24
  WS02006238WS02006235        1.71      1.71      1.86      0.01         0.09
  WS02006239WS02006238        1.76      1.84      1.78      1.81         1.10
  WS02006240WS02006239        1.64      1.71      1.68      1.80         1.07
  WS02006242WS02006240        1.66      1.66      1.92      2.11         0.03
  WS02006243WS02006242        1.65      1.66      1.82      0.01         0.27
  WS02006245WS02006243        1.60      1.62      1.62      1.81         0.97
  WS02006247WS02006245        1.59      1.67      1.59      2.50         1.37
  WS02006248WS02006247        1.58      1.59      1.63      0.01         0.48
  WS02006249WS02006248        1.55      1.55      1.60      2.40         0.02
  WS02006251WS02006249        1.59      1.64      1.60      2.24         1.44
  WS02006252WS02006251        2.42      2.42      2.42      2.42         0.01
  WS02006256WS02006235        2.28      3.14      5.77      1.72         0.05
  YS02001580YS02001583        0.48      0.48      0.51      0.01         0.01
  YS02001583YS02001586        0.49      0.49      0.59      0.01         0.01
  YS02001586YS02001590        0.59      0.59      0.66      0.01         0.01
  YS02001590YS02001593        0.66      0.66      0.68      0.70         0.01
  YS02001593YS02001596        0.67      0.67      0.77      0.01         0.01
  YS02001596YS02001600        0.82      0.82      0.93      0.01         0.01
  YS02001600YS02001601        1.00      1.00      1.31      0.01         0.01
  YS02001601YS02001602        1.20      1.20      1.35      0.96         0.01
  YS02001602YS02001605        1.14      1.14      1.20      2.20         0.01
  YS02001605YS02001607        1.09      1.14      1.09      1.27         1.09
  YS02001607YS02001610        0.60      0.60      0.63      0.01         0.01
  YS02001610YS02001613        0.59      0.59      0.63      0.01         0.01
  YS02001613YS02001616        0.54      0.54      0.59      0.01         0.01
  YS02001616YS02001619        0.53      0.53      0.54      0.01         0.01
  YS02001619YS02001622        0.52      0.53      0.52      0.70         0.50
  YS02001622YS02001625        0.52      0.52      0.72      0.01         0.01
  YS02001625YS02001629        0.42      0.42      0.72      0.01         0.01
  YS02001629YS02163301        0.70      0.70      0.70      0.35         0.32
  YS02001633YS02163601        0.72      0.72      0.76      0.46         0.46
  YS02001641YS02001644        0.54      0.60      0.54      1.39         0.53
  YS02001644YS02001647        0.30      0.30      0.54      0.04         0.01
  YS02001647YS02001649        0.30      0.30      0.32      0.01         0.01
  YS02001649YS02001757        0.31      0.32      0.31      0.37         0.24
  YS02001652YS02001649        0.24      0.24      0.32      0.01         0.01
  YS02001655YS02001652        0.16      0.16      0.22      0.01         0.01
  YS02001658YS02001655        0.09      0.09      0.16      0.01         0.01
  YS02001661YS02001658        0.01      0.01      0.09      0.01         0.01
  YS02001664YS02001661        0.01      0.01      0.02      0.01         0.01
  YS02001745YS02001748        0.01      0.01      0.03      0.01         0.01
  YS02001748YS02001751        0.07      0.07      0.11      0.01         0.01
  YS02001751YS02001754        0.11      0.11      0.16      0.01         0.01
  YS02001754YS02001757        0.18      0.18      0.31      0.01         0.01
  YS02001757CaochengTiaoxuchi        0.01      0.31      0.01      0.41         0.01
  YS02001759YS02001757        0.27      0.27      0.31      0.01         0.01
  YS02001762YS02001759        0.25      0.25      0.27      0.01         0.02
  YS02001765YS02001762        0.24      0.24      0.25      0.01         0.01
  YS02001767YS02001765        0.23      0.23      0.24      0.01         0.04
  YS02001770YS02001767        0.23      0.23      0.23      0.49         0.22
  YS02001774YS02001770        0.22      0.22      0.26      0.01         0.01
  YS02001779YS02001774        0.18      0.18      0.26      0.01         0.01
  YS02001783YS02001784        0.42      0.45      0.42      0.60         0.42
  YS02001784YS02001785        0.32      0.42      0.32      0.83         0.32
  YS02001786YS02001788        0.01      0.32      0.01      0.70         0.01
  YS02001790YS02001791        0.01      0.01      0.01      0.41         0.01
  YS02001882YS02001884        0.39      0.39      0.40      0.01         0.01
  YS02001884YS02001887        0.43      0.43      0.44      0.01         0.01
  YS02001887YS02001890        0.45      0.45      0.46      0.03         0.01
  YS02001890YS02001895        0.38      0.38      0.48      0.01         0.01
  YS02001895YS02001898        0.37      0.37      0.38      0.01         0.01
  YS02001898YS02001901        0.39      0.39      0.42      0.01         0.01
  YS02001901YS02001904        0.41      0.41      0.42      0.01         0.01
  YS02001904YS02001907        0.41      0.41      0.68      0.01         0.01
  YS02001907YS02006553        0.84      0.84      0.91      0.01         0.01
  YS02001910YS02001907        0.48      0.48      0.67      0.01         0.01
  YS02001915YS02001910        0.39      0.39      0.48      0.01         0.01
  YS02001918YS02001915        0.31      0.31      0.39      0.01         0.01
  YS02001920YS02001918        0.31      0.31      0.32      0.01         0.01
  YS02001923YS02001920        0.26      0.26      0.32      0.01         0.01
  YS02001926YS02001923        0.01      0.01      0.02      0.01         0.01
  YS02001929YS02001926        0.01      0.01      0.02      0.01         0.01
  YS02006553YS02006556        0.57      0.57      0.68      0.01         0.01
  YS02006556YS02006558        0.63      0.63      0.70      0.01         0.01
  YS02006558YS02006561        0.34      0.56      0.34      0.78         0.34
  YS02006561YS02001783        0.26      0.26      0.45      0.01         0.01
  YS02163301YS02001633        0.70      0.70      0.75      0.01         0.02
  YS02163601YS02164001        0.62      0.62      0.76      0.29         0.01
  YS02164001YS02001641        0.60      0.62      0.60      0.71         0.50
  
  
  ***************
  Pumping Summary
  ***************
  
  ---------------------------------------------------------------------------------------------------------
                                                  Min       Avg       Max     Total     Power    % Time Off
                        Percent   Number of      Flow      Flow      Flow    Volume     Usage    Pump Curve
  Pump                 Utilized   Start-Ups       LPS       LPS       LPS  10^6 ltr     Kw-hr    Low   High
  ---------------------------------------------------------------------------------------------------------
  CC-R1                   21.68           8      0.00    683.00    683.00     4.221     67.41    0.0  100.0
  CC-R2                   21.68           8      0.00    683.00    683.00     4.221     67.41    0.0  100.0
  CC-S1                   30.60          19      0.00    200.00    200.00     1.744     14.75    0.0   57.7
  CC-S2                   30.60          19      0.00    200.00    200.00     1.744     14.75    0.0   57.7
  JK-R1                    4.73         364      0.00    998.09   1000.00     1.344      3.32    0.0    0.0
  JK-R2                    4.73         364      0.00    998.09   1000.00     1.344      3.32    0.0    0.0
  JK-S                    18.35         626      0.00    296.79    300.00     1.520     34.86    0.0    0.0
  

  Analysis begun on:  Thu Jan 16 14:21:11 2025
  Analysis ended on:  Thu Jan 16 14:21:12 2025
  Total elapsed time: 00:00:01