
  EPA STORM WATER MANAGEMENT MODEL - VERSION 5.2 (Build 5.2.4)
  PYSWMM TOOLKIT API - VERSION v1.0 (2023-11-27)
  ------------------------------------------------------------

  WARNING 04: minimum elevation drop used for Conduit WS02004404WS02004405
  WARNING 03: negative offset ignored for Link YS02001904YS02001907
  
  ****************
  Analysis Options
  ****************
  Flow Units ............... LPS
  Process Models:
    Rainfall/Runoff ........ YES
    RDII ................... NO
    Snowmelt ............... NO
    Groundwater ............ NO
    Flow Routing ........... YES
    Ponding Allowed ........ NO
    Water Quality .......... NO
  Infiltration Method ...... HORTON
  Flow Routing Method ...... DYNWAVE
  Surcharge Method ......... EXTRAN
  Starting Date ............ 08/28/2015 08:00:00
  Ending Date .............. 08/28/2015 16:00:00
  Antecedent Dry Days ...... 8.0
  Report Time Step ......... 00:01:00
  Wet Time Step ............ 00:01:00
  Dry Time Step ............ 00:01:00
  Routing Time Step ........ 30.00 sec
  Variable Time Step ....... YES
  Maximum Trials ........... 8
  Number of Threads ........ 4
  Head Tolerance ........... 0.001500 m
  
  
  **************************        Volume         Depth
  Runoff Quantity Continuity     hectare-m            mm
  **************************     ---------       -------
  Total Precipitation ......         2.375        71.587
  Evaporation Loss .........         0.000         0.000
  Infiltration Loss ........         0.101         3.041
  Surface Runoff ...........         2.241        67.563
  Final Storage ............         0.033         0.997
  Continuity Error (%) .....        -0.020
  
  
  **************************        Volume        Volume
  Flow Routing Continuity        hectare-m      10^6 ltr
  **************************     ---------     ---------
  Dry Weather Inflow .......         0.025         0.248
  Wet Weather Inflow .......         2.241        22.408
  Groundwater Inflow .......         0.000         0.000
  RDII Inflow ..............         0.000         0.000
  External Inflow ..........         0.083         0.825
  External Outflow .........         1.900        18.997
  Flooding Loss ............         0.719         7.186
  Evaporation Loss .........         0.000         0.000
  Exfiltration Loss ........         0.000         0.000
  Initial Stored Volume ....         0.243         2.431
  Final Stored Volume ......         0.039         0.391
  Continuity Error (%) .....        -2.554
  
  
  *************************
  Highest Continuity Errors
  *************************
  Node WS02006256 (-15.06%)
  Node JK-storage (-8.73%)
  Node YS02001884 (5.31%)
  Node YS02001583 (-3.77%)
  
  
  ***************************
  Time-Step Critical Elements
  ***************************
  Link WS02006238WS02006235 (38.07%)
  Link YS02001793JiankangQianchi (30.79%)
  Link WS02003066WSF200 (6.55%)
  Link WS02004404WS02004405 (6.09%)
  Link YS02006556YS02006558 (2.17%)
  
  
  ********************************
  Highest Flow Instability Indexes
  ********************************
  Link WS02006229WS02006228 (45)
  Link WS02006256WS02006235 (42)
  Link WS02006252WS02006251 (39)
  Link WS02006113WS02006111 (39)
  Link WS02006235WS02006234 (33)
  
  
  *********************************
  Most Frequent Nonconverging Nodes
  *********************************
  Node CC-1 (49.17%)
  Node CC-2 (49.17%)
  Node JK-1 (49.17%)
  Node JK-2 (49.17%)
  Node WSC (49.17%)
  
  
  *************************
  Routing Time Step Summary
  *************************
  Minimum Time Step           :     0.00 sec
  Average Time Step           :     2.53 sec
  Maximum Time Step           :     6.43 sec
  % of Time in Steady State   :     0.00
  Average Iterations per Step :     5.47
  % of Steps Not Converging   :    49.17
  Time Step Frequencies       :
     30.000 - 13.228 sec      :     0.00 %
     13.228 -  5.833 sec      :     4.50 %
      5.833 -  2.572 sec      :    35.60 %
      2.572 -  1.134 sec      :    42.87 %
      1.134 -  0.500 sec      :    17.04 %
  
  
  ***************************
  Subcatchment Runoff Summary
  ***************************
  
  ------------------------------------------------------------------------------------------------------------------------------
                            Total      Total      Total      Total     Imperv       Perv      Total       Total     Peak  Runoff
                           Precip      Runon       Evap      Infil     Runoff     Runoff     Runoff      Runoff   Runoff   Coeff
  Subcatchment                 mm         mm         mm         mm         mm         mm         mm    10^6 ltr      LPS
  ------------------------------------------------------------------------------------------------------------------------------
  sub60                     71.59       0.00       0.00       1.83      61.79       6.76      68.56        0.90   589.32   0.958
  sub61                     71.59       0.00       0.00       2.65      58.29       9.52      67.81        1.24   818.09   0.947
  sub62                     71.59       0.00       0.00       1.22      64.57       4.51      69.08        1.89  1157.39   0.965
  sub63                     71.59       0.00       0.00       4.88      49.86      15.88      65.74        1.49   926.24   0.918
  sub64                     71.59       0.00       0.00       2.47      59.64       8.27      67.91        1.63   944.87   0.949
  sub65                     71.59       0.00       0.00       2.14      61.03       7.17      68.20        1.88  1059.50   0.953
  sub66                     71.59       0.00       0.00       6.05      49.75      14.71      64.46        3.01  1403.05   0.900
  sub67                     71.59       0.00       0.00       1.17      64.62       4.56      69.17        1.29   881.49   0.966
  sub68                     71.59       0.00       0.00       2.19      60.38       7.83      68.21        1.88  1186.32   0.953
  sub69                     71.59       0.00       0.00       1.96      60.74       8.78      69.52        2.57  1410.10   0.971
  sub70                     71.59       0.00       0.00       6.54      47.08      17.80      64.88        1.87   789.71   0.906
  sub71                     71.59       0.00       0.00       1.25      64.53       4.48      69.01        1.80  1022.88   0.964
  sub72                     71.59       0.00       0.00       1.11      65.17       3.90      69.07        0.95   498.77   0.965
  
  
  ******************
  Node Depth Summary
  ******************
  
  ---------------------------------------------------------------------------------
                                 Average  Maximum  Maximum  Time of Max    Reported
                                   Depth    Depth      HGL   Occurrence   Max Depth
  Node                 Type       Meters   Meters   Meters  days hr:min      Meters
  ---------------------------------------------------------------------------------
  WS02003060           JUNCTION     0.24     0.38     5.31     0  03:07        0.38
  WS02003066           JUNCTION     0.20     0.30     5.85     0  03:07        0.30
  WS02003067           JUNCTION     0.50     0.70     6.02     0  03:06        0.70
  WS02003069           JUNCTION     0.27     0.43     5.01     0  03:06        0.43
  WS02003072           JUNCTION     0.33     0.50     4.87     0  03:07        0.50
  WS02003073           JUNCTION     0.19     0.30     4.36     0  03:08        0.30
  WS02004401           JUNCTION     0.61     0.87     6.87     0  03:04        0.87
  WS02004402           JUNCTION     0.64     0.90     6.86     0  03:02        0.90
  WS02004403           JUNCTION     0.66     0.92     6.85     0  03:04        0.91
  WS02004404           JUNCTION     0.74     1.00     6.85     0  03:04        0.99
  WS02004405           JUNCTION     0.72     0.96     6.81     0  03:04        0.96
  WS02004406           JUNCTION     0.73     0.96     6.79     0  03:04        0.96
  WS02004407           JUNCTION     0.18     0.30     6.61     0  03:05        0.29
  WS02004409           JUNCTION     0.41     0.66     6.43     0  03:05        0.66
  WS02004410           JUNCTION     0.43     0.68     6.40     0  03:05        0.68
  WS02004411           JUNCTION     0.45     0.69     6.37     0  03:06        0.69
  WS02004412           JUNCTION     0.47     0.70     6.34     0  03:06        0.70
  WS02004413           JUNCTION     0.62     0.86     6.33     0  03:06        0.85
  WS02006109           JUNCTION     0.69     1.03     7.65     0  02:59        1.02
  WS02006110           JUNCTION     0.68     0.98     7.56     0  02:59        0.96
  WS02006111           JUNCTION     0.19     0.29     6.99     0  03:02        0.29
  WS02006112           JUNCTION     0.77     1.08     6.96     0  03:04        1.06
  WS02006113           JUNCTION     0.29     0.46     7.35     0  02:58        0.46
  WS02006115           JUNCTION     0.50     0.77     6.91     0  03:03        0.77
  WS02006116           JUNCTION     0.58     0.85     6.89     0  03:03        0.85
  WS02006228           JUNCTION     0.69     1.07     7.72     0  02:59        1.06
  WS02006229           JUNCTION     0.66     1.08     7.78     0  02:57        1.06
  WS02006230           JUNCTION     0.68     1.21     7.95     0  02:57        1.15
  WS02006231           JUNCTION     0.48     1.85     8.97     0  02:14        1.85
  WS02006232           JUNCTION     0.62     2.18     9.22     0  01:51        2.18
  WS02006234           JUNCTION     0.56     1.96     9.12     0  01:51        1.96
  WS02006235           JUNCTION     0.61     2.00     9.16     0  01:51        2.00
  WS02006238           JUNCTION     0.64     2.15     9.29     0  01:39        2.15
  WS02006239           JUNCTION     0.61     2.03     9.24     0  01:39        2.03
  WS02006240           JUNCTION     0.57     2.10     9.39     0  01:39        2.10
  WS02006242           JUNCTION     0.64     1.55     8.82     0  01:39        1.55
  WS02006243           JUNCTION     0.56     1.48     8.90     0  01:39        1.48
  WS02006245           JUNCTION     0.56     1.56     9.04     0  01:51        1.56
  WS02006247           JUNCTION     0.58     1.47     8.97     0  01:41        1.47
  WS02006248           JUNCTION     0.54     1.10     8.69     0  01:41        1.10
  WS02006249           JUNCTION     0.57     1.09     8.69     0  01:41        1.09
  WS02006251           JUNCTION     0.56     1.68     9.35     0  01:42        1.48
  WS02006252           JUNCTION     0.36     1.50     9.74     0  00:00        1.11
  WS02006256           JUNCTION     1.16     2.35     9.28     0  00:00        2.35
  WSF200               JUNCTION     0.17     0.29     5.52     0  03:07        0.29
  YS02001580           JUNCTION     0.16     1.05     9.59     0  01:52        1.05
  YS02001583           JUNCTION     0.20     1.02     9.51     0  01:52        0.82
  YS02001586           JUNCTION     0.31     1.13     9.30     0  01:52        1.13
  YS02001590           JUNCTION     0.43     1.40     9.26     0  02:20        1.40
  YS02001593           JUNCTION     0.36     1.39     9.25     0  01:51        1.39
  YS02001596           JUNCTION     0.49     1.77     9.19     0  01:51        1.77
  YS02001600           JUNCTION     0.58     1.87     9.00     0  01:51        1.87
  YS02001601           JUNCTION     0.77     2.06     8.90     0  01:51        2.06
  YS02001602           JUNCTION     0.67     1.87     8.77     0  01:51        1.87
  YS02001605           JUNCTION     0.61     1.78     8.68     0  01:52        1.78
  YS02001607           JUNCTION     0.57     1.66     8.50     0  01:52        1.64
  YS02001610           JUNCTION     0.61     1.68     8.48     0  01:52        1.68
  YS02001613           JUNCTION     0.57     1.70     8.54     0  02:20        1.70
  YS02001616           JUNCTION     0.50     1.61     8.52     0  01:52        1.60
  YS02001619           JUNCTION     0.48     1.61     8.54     0  02:01        1.61
  YS02001622           JUNCTION     0.47     1.59     8.49     0  02:01        1.59
  YS02001625           JUNCTION     0.71     1.78     8.38     0  01:55        1.78
  YS02001629           JUNCTION     0.61     1.85     8.40     0  01:52        1.85
  YS02001633           JUNCTION     0.67     2.08     8.53     0  02:01        2.08
  YS02001641           JUNCTION     0.63     1.98     8.41     0  01:57        1.98
  YS02001644           JUNCTION     0.62     1.92     8.35     0  01:57        1.92
  YS02001647           JUNCTION     0.39     1.81     8.42     0  01:58        1.73
  YS02001649           JUNCTION     0.43     2.05     8.44     0  01:57        1.94
  YS02001652           JUNCTION     0.31     2.11     8.71     0  01:57        1.77
  YS02001655           JUNCTION     0.22     2.06     8.91     0  01:57        1.56
  YS02001658           JUNCTION     0.17     2.22     9.36     0  01:57        1.33
  YS02001661           JUNCTION     0.19     1.69     9.09     0  01:58        1.12
  YS02001664           JUNCTION     0.09     0.63     8.55     0  01:58        0.61
  YS02001745           JUNCTION     0.09     0.83     8.35     0  01:58        0.80
  YS02001748           JUNCTION     0.15     2.18     9.26     0  01:58        1.23
  YS02001751           JUNCTION     0.18     1.90     8.78     0  01:58        1.41
  YS02001754           JUNCTION     0.24     1.92     8.53     0  01:58        1.65
  YS02001757           JUNCTION     0.43     2.07     8.33     0  01:58        1.98
  YS02001759           JUNCTION     0.37     2.01     8.38     0  01:58        1.98
  YS02001762           JUNCTION     0.36     2.01     8.41     0  01:58        1.95
  YS02001765           JUNCTION     0.34     1.99     8.44     0  01:58        1.91
  YS02001767           JUNCTION     0.33     1.94     8.43     0  01:58        1.90
  YS02001770           JUNCTION     0.35     1.95     8.44     0  01:58        1.95
  YS02001774           JUNCTION     0.41     2.03     8.45     0  01:57        2.03
  YS02001779           JUNCTION     0.24     1.68     8.37     0  01:56        1.68
  YS02001783           JUNCTION     0.35     1.32     7.46     0  01:55        1.31
  YS02001784           JUNCTION     0.36     1.20     7.27     0  02:20        1.15
  YS02001786           JUNCTION     0.29     0.92     6.95     0  01:55        0.88
  YS02001788           JUNCTION     0.21     0.63     6.60     0  02:00        0.62
  YS02001790           JUNCTION     0.25     0.72     6.37     0  02:01        0.72
  YS02001791           JUNCTION     0.15     0.44     5.91     0  02:01        0.43
  YS02001793           JUNCTION     0.09     0.26     5.09     0  02:01        0.26
  YS02001882           JUNCTION     0.44     1.73     8.44     0  02:01        1.73
  YS02001884           JUNCTION     0.52     1.80     8.41     0  02:01        1.80
  YS02001887           JUNCTION     0.60     1.93     8.47     0  02:20        1.93
  YS02001890           JUNCTION     0.63     1.81     8.32     0  01:55        1.81
  YS02001895           JUNCTION     0.41     1.58     8.33     0  02:11        1.57
  YS02001898           JUNCTION     0.41     1.61     8.35     0  02:20        1.61
  YS02001901           JUNCTION     0.52     1.82     8.43     0  02:11        1.82
  YS02001904           JUNCTION     0.50     1.65     8.28     0  02:11        1.65
  YS02001907           JUNCTION     0.81     1.96     8.25     0  01:55        1.96
  YS02001910           JUNCTION     0.62     1.98     8.49     0  01:56        1.98
  YS02001915           JUNCTION     0.45     1.92     8.64     0  02:01        1.92
  YS02001918           JUNCTION     0.27     1.81     8.88     0  01:56        1.52
  YS02001920           JUNCTION     0.35     2.12     9.12     0  01:56        1.84
  YS02001923           JUNCTION     0.22     2.03     9.29     0  01:56        1.34
  YS02001926           JUNCTION     0.23     1.90     9.35     0  01:56        1.17
  YS02001929           JUNCTION     0.14     1.78     9.47     0  01:56        0.94
  YS02006553           JUNCTION     0.81     1.99     8.27     0  02:01        1.99
  YS02006556           JUNCTION     0.78     2.02     8.33     0  02:01        2.02
  YS02006558           JUNCTION     0.82     2.12     8.39     0  02:01        2.12
  YS02006561           JUNCTION     0.22     1.03     7.69     0  01:55        0.90
  YS02163301           JUNCTION     0.63     1.95     8.46     0  02:01        1.95
  YS02163601           JUNCTION     0.70     2.06     8.46     0  02:01        2.06
  YS02164001           JUNCTION     0.62     1.98     8.44     0  02:11        1.97
  CC-1                 OUTFALL      0.00     0.00     0.00     0  00:00        0.00
  CC-2                 OUTFALL      0.00     0.00     0.00     0  00:00        0.00
  JK-1                 OUTFALL      0.00     0.00     0.00     0  00:00        0.00
  JK-2                 OUTFALL      0.00     0.00     0.00     0  00:00        0.00
  WSC                  OUTFALL      0.19     0.30     0.97     0  03:08        0.30
  CC-storage           STORAGE      0.27     0.97     6.47     0  02:36        0.97
  JK-storage           STORAGE      0.02     2.99     3.79     0  00:00        0.68
  
  
  *******************
  Node Inflow Summary
  *******************
  
  -------------------------------------------------------------------------------------------------
                                  Maximum  Maximum                  Lateral       Total        Flow
                                  Lateral    Total  Time of Max      Inflow      Inflow     Balance
                                   Inflow   Inflow   Occurrence      Volume      Volume       Error
  Node                 Type           LPS      LPS  days hr:min    10^6 ltr    10^6 ltr     Percent
  -------------------------------------------------------------------------------------------------
  WS02003060           JUNCTION     16.53   550.07     0  03:07       0.471        5.37       0.048
  WS02003066           JUNCTION      0.00   532.72     0  03:07           0         4.9       0.033
  WS02003067           JUNCTION      0.00   532.62     0  03:06           0         4.9       0.089
  WS02003069           JUNCTION      0.32   549.43     0  03:07     0.00912        5.37       0.089
  WS02003072           JUNCTION      0.00   548.78     0  03:06           0        5.37       0.155
  WS02003073           JUNCTION      1.82   550.41     0  03:07      0.0519        5.41       0.124
  WS02004401           JUNCTION      0.00   536.94     0  03:04           0           5       0.216
  WS02004402           JUNCTION      0.00   535.84     0  03:01           0        4.99       0.218
  WS02004403           JUNCTION      0.00   536.48     0  03:02           0        4.98       0.213
  WS02004404           JUNCTION      0.16   547.93     0  03:04     0.00462        4.98       0.129
  WS02004405           JUNCTION      0.04   595.52     0  03:05     0.00109        4.97       0.204
  WS02004406           JUNCTION      0.00   542.83     0  03:04           0        4.96       0.437
  WS02004407           JUNCTION      0.00   536.67     0  03:05           0        4.94       0.027
  WS02004409           JUNCTION      0.00   535.17     0  03:05           0        4.94       0.065
  WS02004410           JUNCTION      0.00   534.53     0  03:05           0        4.94       0.104
  WS02004411           JUNCTION      0.00   533.71     0  03:05           0        4.93       0.127
  WS02004412           JUNCTION      0.00   533.20     0  03:06           0        4.92       0.165
  WS02004413           JUNCTION      0.00   533.67     0  03:06           0        4.92       0.301
  WS02006109           JUNCTION      1.23   545.53     0  02:58      0.0351        5.05       0.133
  WS02006110           JUNCTION      0.00   545.61     0  02:58           0        5.05       0.144
  WS02006111           JUNCTION      0.00   561.76     0  03:04           0        5.04       0.027
  WS02006112           JUNCTION      0.00   541.80     0  02:58           0        5.04       0.418
  WS02006113           JUNCTION      0.00   556.52     0  02:58           0        5.04       0.038
  WS02006115           JUNCTION      0.00   545.02     0  03:02           0        5.01       0.152
  WS02006116           JUNCTION      0.00   537.41     0  03:00           0        5.01       0.035
  WS02006228           JUNCTION      0.00   544.10     0  02:57           0        5.02       0.057
  WS02006229           JUNCTION      0.00   543.49     0  02:58           0        5.03       0.137
  WS02006230           JUNCTION     10.28   574.41     0  02:55       0.293        5.03       0.101
  WS02006231           JUNCTION      0.00   560.95     0  02:55           0        4.74      -0.084
  WS02006232           JUNCTION      0.00   558.43     0  02:55           0        4.75       0.264
  WS02006234           JUNCTION      0.00   603.36     0  01:40           0        4.73      -0.375
  WS02006235           JUNCTION      0.00   572.80     0  01:40           0        4.89       0.090
  WS02006238           JUNCTION      0.00   427.88     0  03:17           0        3.75      -0.333
  WS02006239           JUNCTION      0.00   420.98     0  03:17           0        3.61      -0.405
  WS02006240           JUNCTION      0.00   419.92     0  03:18           0        3.56      -0.260
  WS02006242           JUNCTION      0.00   422.58     0  03:18           0        3.56      -0.106
  WS02006243           JUNCTION      0.00   431.35     0  01:44           0        3.56       0.001
  WS02006245           JUNCTION      0.00   558.11     0  01:39           0        3.59       0.866
  WS02006247           JUNCTION      0.00   493.24     0  01:41           0        3.58      -0.223
  WS02006248           JUNCTION      0.00   568.56     0  01:41           0         3.6       0.115
  WS02006249           JUNCTION      0.00   544.82     0  01:41           0        3.77       0.764
  WS02006251           JUNCTION      0.08   467.83     0  01:40     0.00219        3.77       0.076
  WS02006252           JUNCTION      0.00   400.00     0  00:00           0        3.75      -0.244
  WS02006256           JUNCTION      0.00   300.00     0  00:00           0        1.63     -13.088
  WSF200               JUNCTION      0.00   532.90     0  03:07           0         4.9       0.013
  YS02001580           JUNCTION      0.00   114.86     0  01:52           0     0.00413      -1.745
  YS02001583           JUNCTION      0.00   152.53     0  01:52           0      0.0153      -3.636
  YS02001586           JUNCTION    789.71   789.71     0  02:04        1.87        1.89       0.069
  YS02001590           JUNCTION      0.00   320.20     0  02:20           0        1.42      -0.035
  YS02001593           JUNCTION      0.00   320.69     0  02:20           0        1.42       0.016
  YS02001596           JUNCTION      0.00   317.87     0  02:20           0        1.42       0.004
  YS02001600           JUNCTION      0.00   318.03     0  02:20           0        1.42       0.020
  YS02001601           JUNCTION   1410.10  1727.70     0  02:03        2.57        3.99       0.024
  YS02001602           JUNCTION      0.00   513.17     0  01:51           0        2.43       0.022
  YS02001605           JUNCTION      0.00   512.71     0  01:51           0        2.33       0.024
  YS02001607           JUNCTION      0.00   512.07     0  01:51           0        2.33       0.090
  YS02001610           JUNCTION      0.00   781.67     0  02:04           0        2.62       0.094
  YS02001613           JUNCTION      0.00   517.61     0  01:51           0        2.15       0.083
  YS02001616           JUNCTION      0.00   519.18     0  01:51           0        2.15       0.026
  YS02001619           JUNCTION   1403.05  1403.05     0  02:04        3.01        4.86       0.003
  YS02001622           JUNCTION      0.00   974.96     0  02:24           0        4.56       0.005
  YS02001625           JUNCTION      0.00  1380.26     0  02:05           0        4.78       0.190
  YS02001629           JUNCTION      0.00   974.87     0  02:24           0        3.92       0.026
  YS02001633           JUNCTION   1059.70  1381.74     0  01:55        1.88        5.53       0.066
  YS02001641           JUNCTION      0.00  1379.75     0  01:55           0        5.28       0.056
  YS02001644           JUNCTION    944.91  1794.77     0  01:55        1.63         6.9       0.050
  YS02001647           JUNCTION      0.00  1794.14     0  01:55           0        6.47       0.007
  YS02001649           JUNCTION      0.00  2045.40     0  01:55           0        7.97       0.004
  YS02001652           JUNCTION      0.00   953.34     0  02:02           0         1.5      -0.073
  YS02001655           JUNCTION      0.15   953.01     0  02:02     0.00439         1.5       0.053
  YS02001658           JUNCTION      0.00   953.14     0  02:02           0        1.49      -0.032
  YS02001661           JUNCTION      0.00   951.48     0  02:02           0        1.49       0.013
  YS02001664           JUNCTION    926.24   926.24     0  02:02        1.49        1.49      -0.005
  YS02001745           JUNCTION    589.32   589.32     0  02:02       0.901       0.901       0.101
  YS02001748           JUNCTION      0.04   602.73     0  02:02     0.00128       0.902      -0.139
  YS02001751           JUNCTION      0.01   602.67     0  02:02    0.000313       0.908       0.062
  YS02001754           JUNCTION      0.26   603.19     0  02:02     0.00741        0.92      -0.069
  YS02001757           JUNCTION      0.00  3413.79     0  02:07           0        11.8       0.037
  YS02001759           JUNCTION    818.13  1396.48     0  02:01        1.25        2.95      -0.003
  YS02001762           JUNCTION      0.00   817.57     0  02:08           0         1.7       0.004
  YS02001765           JUNCTION      0.00   817.52     0  02:08           0         1.7       0.008
  YS02001767           JUNCTION      0.54   817.45     0  02:08      0.0152         1.7       0.008
  YS02001770           JUNCTION   1157.54  1157.54     0  02:02         1.9        1.94      -0.007
  YS02001774           JUNCTION      0.00   600.15     0  02:02           0        0.27       0.435
  YS02001779           JUNCTION      0.01   600.70     0  02:02    0.000142       0.227      -0.138
  YS02001783           JUNCTION      0.00  1166.74     0  02:01           0        4.31       0.007
  YS02001784           JUNCTION      1.06  1168.09     0  02:01      0.0302        4.34       0.013
  YS02001786           JUNCTION      0.06  1168.72     0  02:01      0.0016        4.35       0.017
  YS02001788           JUNCTION      0.07  1169.08     0  02:01     0.00202        4.35       0.007
  YS02001790           JUNCTION      0.15  1185.20     0  02:00     0.00442        4.35      -0.001
  YS02001791           JUNCTION      0.00  1291.08     0  02:01           0        4.35      -0.000
  YS02001793           JUNCTION      0.00  1259.90     0  02:02           0        4.35      -0.001
  YS02001882           JUNCTION      0.00    39.48     0  01:53           0      0.0133       5.635
  YS02001884           JUNCTION      0.00    75.14     0  01:53           0      0.0495       5.610
  YS02001887           JUNCTION    881.94   885.78     0  02:01         1.3        1.33       0.342
  YS02001890           JUNCTION      0.00   887.58     0  02:01           0        1.29       0.404
  YS02001895           JUNCTION      0.00   517.74     0  02:07           0        1.16       0.150
  YS02001898           JUNCTION      0.00   517.66     0  02:07           0        1.16       0.033
  YS02001901           JUNCTION      0.00   517.62     0  02:07           0        1.16       0.288
  YS02001904           JUNCTION      0.00   517.61     0  02:07           0        1.16       0.254
  YS02001907           JUNCTION      0.00  2070.54     0  02:02           0        3.99       0.456
  YS02001910           JUNCTION      0.00  1529.86     0  02:02           0        2.83       0.256
  YS02001915           JUNCTION   1022.90  1529.48     0  02:02         1.8        2.87       0.056
  YS02001918           JUNCTION      0.00   508.79     0  02:02           0        1.09       0.028
  YS02001920           JUNCTION      2.87   508.85     0  02:02      0.0818        1.08       0.089
  YS02001923           JUNCTION      0.04   505.22     0  02:02     0.00107       0.981      -0.028
  YS02001926           JUNCTION      0.05   505.06     0  02:02     0.00149        0.96      -0.024
  YS02001929           JUNCTION    498.77   498.77     0  02:03        0.95        0.95      -0.042
  YS02006553           JUNCTION      0.00   808.22     0  02:21           0        2.47       0.485
  YS02006556           JUNCTION      0.00   809.63     0  02:21           0        2.47       0.338
  YS02006558           JUNCTION   1187.20  1187.20     0  02:02         1.9        4.35       0.075
  YS02006561           JUNCTION      0.00  1168.01     0  02:01           0        4.31       0.004
  YS02163301           JUNCTION      0.00   976.67     0  02:24           0        3.91       0.045
  YS02163601           JUNCTION      0.11  1381.54     0  01:55     0.00313        5.28       0.097
  YS02164001           JUNCTION      0.00  1381.08     0  01:55           0        5.27       0.051
  CC-1                 OUTFALL       0.00   683.00     0  00:00           0        5.15       0.000
  CC-2                 OUTFALL       0.00   683.00     0  00:00           0        5.15       0.000
  JK-1                 OUTFALL       0.00  1000.00     0  00:00           0        1.64       0.000
  JK-2                 OUTFALL       0.00  1000.00     0  00:00           0        1.64       0.000
  WSC                  OUTFALL       0.00   550.23     0  03:08           0         5.4       0.000
  CC-storage           STORAGE       0.00  3412.61     0  02:07           0          14      -0.332
  JK-storage           STORAGE       0.00  1308.34     0  02:02           0         4.5      -8.031
  
  
  **********************
  Node Surcharge Summary
  **********************
  
  Surcharging occurs when water rises above the top of the highest conduit.
  ---------------------------------------------------------------------
                                               Max. Height   Min. Depth
                                   Hours       Above Crown    Below Rim
  Node                 Type      Surcharged         Meters       Meters
  ---------------------------------------------------------------------
  WS02006109           JUNCTION        1.96          0.213        1.607
  WS02006110           JUNCTION        0.11          0.070        1.780
  WS02006112           JUNCTION        1.49          0.077        1.603
  WS02006228           JUNCTION        1.94          0.239        1.961
  WS02006229           JUNCTION        1.98          0.281        2.169
  WS02006230           JUNCTION        0.09          0.125        1.445
  WS02006231           JUNCTION        1.13          1.141        0.389
  WS02006232           JUNCTION        2.05          1.480        0.000
  WS02006234           JUNCTION        1.66          1.240        0.000
  WS02006235           JUNCTION        1.90          1.290        0.000
  WS02006238           JUNCTION        2.00          1.430        0.000
  WS02006239           JUNCTION        1.91          1.290        0.000
  WS02006240           JUNCTION        1.89          1.390        0.000
  WS02006242           JUNCTION        2.02          0.820        0.000
  WS02006243           JUNCTION        1.88          0.770        0.000
  WS02006245           JUNCTION        1.85          0.850        0.000
  WS02006247           JUNCTION        1.89          0.760        0.000
  WS02006248           JUNCTION        1.84          0.380        0.000
  WS02006249           JUNCTION        1.87          0.390        0.000
  WS02006251           JUNCTION        1.51          0.646        0.534
  WS02006252           JUNCTION        2.61          1.100        0.000
  WS02006256           JUNCTION        6.84          2.050        0.000
  YS02001580           JUNCTION        0.70          0.450        0.000
  YS02001583           JUNCTION        0.70          0.377        0.123
  YS02001586           JUNCTION        0.80          0.510        0.000
  YS02001590           JUNCTION        0.88          0.750        0.000
  YS02001593           JUNCTION        0.88          0.773        0.067
  YS02001596           JUNCTION        1.00          1.043        0.027
  YS02001600           JUNCTION        1.18          1.190        0.000
  YS02001601           JUNCTION        1.53          1.440        0.000
  YS02001602           JUNCTION        1.43          1.270        0.000
  YS02001605           JUNCTION        1.38          1.180        0.000
  YS02001607           JUNCTION        0.80          0.655        0.025
  YS02001610           JUNCTION        0.83          0.680        0.000
  YS02001613           JUNCTION        0.79          0.700        0.000
  YS02001616           JUNCTION        0.74          0.610        0.000
  YS02001619           JUNCTION        0.73          0.610        0.000
  YS02001622           JUNCTION        0.71          0.589        0.031
  YS02001625           JUNCTION        0.93          0.780        0.000
  YS02001629           JUNCTION        0.60          0.470        0.000
  YS02001633           JUNCTION        0.94          1.060        0.000
  YS02001641           JUNCTION        0.81          0.976        0.124
  YS02001644           JUNCTION        0.73          0.920        0.000
  YS02001647           JUNCTION        0.45          0.810        0.090
  YS02001649           JUNCTION        0.50          1.050        0.000
  YS02001652           JUNCTION        0.36          1.083        0.047
  YS02001655           JUNCTION        0.28          1.058        0.142
  YS02001658           JUNCTION        0.20          1.218        0.082
  YS02001661           JUNCTION        0.04          0.620        0.770
  YS02001748           JUNCTION        0.13          1.101        0.089
  YS02001751           JUNCTION        0.22          0.902        0.298
  YS02001754           JUNCTION        0.28          0.873        0.277
  YS02001757           JUNCTION        0.48          1.065        0.145
  YS02001759           JUNCTION        0.43          1.015        0.195
  YS02001762           JUNCTION        0.40          1.007        0.143
  YS02001765           JUNCTION        0.38          0.986        0.114
  YS02001767           JUNCTION        0.36          0.945        0.085
  YS02001770           JUNCTION        0.36          0.920        0.000
  YS02001774           JUNCTION        0.41          1.027        0.023
  YS02001779           JUNCTION        0.31          0.680        0.000
  YS02001783           JUNCTION        0.61          0.517        1.083
  YS02001784           JUNCTION        0.58          0.399        1.091
  YS02001786           JUNCTION        0.46          0.122        1.308
  YS02001882           JUNCTION        0.55          0.727        0.103
  YS02001884           JUNCTION        0.56          0.736        0.134
  YS02001887           JUNCTION        0.59          0.880        0.070
  YS02001890           JUNCTION        0.61          0.760        0.000
  YS02001895           JUNCTION        0.54          0.579        0.171
  YS02001898           JUNCTION        0.53          0.584        0.156
  YS02001901           JUNCTION        0.58          0.823        0.047
  YS02001904           JUNCTION        0.57          0.653        0.197
  YS02001907           JUNCTION        0.83          0.950        0.000
  YS02001910           JUNCTION        0.64          0.982        0.118
  YS02001915           JUNCTION        0.54          0.922        0.078
  YS02001918           JUNCTION        0.45          0.810        0.000
  YS02001920           JUNCTION        0.47          1.116        0.024
  YS02001923           JUNCTION        0.14          0.820        0.000
  YS02001926           JUNCTION        0.17          0.900        0.000
  YS02001929           JUNCTION        0.01          0.780        0.000
  YS02006553           JUNCTION        0.85          0.985        0.205
  YS02006556           JUNCTION        0.74          0.983        0.367
  YS02006558           JUNCTION        0.72          1.020        0.380
  YS02006561           JUNCTION        0.41          0.232        0.918
  YS02163301           JUNCTION        0.92          0.948        0.082
  YS02163601           JUNCTION        0.97          1.064        0.016
  YS02164001           JUNCTION        0.83          0.978        0.122
  
  
  *********************
  Node Flooding Summary
  *********************
  
  Flooding refers to all water that overflows a node, whether it ponds or not.
  --------------------------------------------------------------------------
                                                             Total   Maximum
                                 Maximum   Time of Max       Flood    Ponded
                        Hours       Rate    Occurrence      Volume     Depth
  Node                 Flooded       LPS   days hr:min    10^6 ltr    Meters
  --------------------------------------------------------------------------
  WS02006232              0.01      2.83      0  01:51       0.000     0.000
  WS02006234              0.01      6.83      0  01:51       0.000     0.000
  WS02006235              0.01     12.59      0  02:40       0.000     0.000
  WS02006238              0.01     41.30      0  01:39       0.000     0.000
  WS02006239              0.01    113.53      0  01:39       0.000     0.000
  WS02006240              0.01     73.21      0  01:39       0.000     0.000
  WS02006242              0.02     72.23      0  01:46       0.001     0.000
  WS02006243              0.01    105.40      0  01:41       0.000     0.000
  WS02006245              0.01      2.81      0  01:51       0.000     0.000
  WS02006247              0.01    159.31      0  01:41       0.000     0.000
  WS02006248              0.40    230.43      0  01:41       0.012     0.000
  WS02006249              1.39    184.80      0  01:41       0.137     0.000
  WS02006252              0.01    275.77      0  01:48       0.001     0.000
  WS02006256              1.48    298.65      0  03:38       0.709     0.000
  YS02001580              0.01     98.30      0  01:52       0.000     0.000
  YS02001586              0.56    472.19      0  02:04       0.452     0.000
  YS02001590              0.01      0.25      0  02:20       0.000     0.000
  YS02001600              0.01      0.66      0  02:20       0.000     0.000
  YS02001601              0.71   1329.86      0  02:03       1.561     0.000
  YS02001602              0.51     61.92      0  02:04       0.105     0.000
  YS02001605              0.01      3.84      0  01:52       0.000     0.000
  YS02001610              0.46    781.47      0  02:04       0.761     0.000
  YS02001613              0.01      0.43      0  02:20       0.000     0.000
  YS02001616              0.01      7.41      0  01:52       0.000     0.000
  YS02001619              0.01      1.34      0  02:01       0.000     0.000
  YS02001625              0.39   1380.26      0  02:05       1.106     0.000
  YS02001629              0.14    190.99      0  02:00       0.054     0.000
  YS02001633              0.01      0.07      0  02:01       0.000     0.000
  YS02001644              0.19   1080.32      0  02:02       0.424     0.000
  YS02001649              0.01      9.98      0  01:57       0.000     0.000
  YS02001770              0.01     11.12      0  01:58       0.000     0.000
  YS02001779              0.17    600.69      0  02:02       0.209     0.000
  YS02001890              0.20    373.35      0  02:01       0.128     0.000
  YS02001907              0.40   2070.42      0  02:02       1.522     0.000
  YS02001918              0.01     54.00      0  01:56       0.000     0.000
  YS02001923              0.01     35.42      0  01:56       0.000     0.000
  YS02001926              0.01    240.38      0  01:56       0.000     0.000
  YS02001929              0.01    337.63      0  01:56       0.002     0.000
  
  
  **********************
  Storage Volume Summary
  **********************
  
  ------------------------------------------------------------------------------------------------
                         Average    Avg   Evap  Exfil     Maximum    Max    Time of Max    Maximum
                          Volume   Pcnt   Pcnt   Pcnt      Volume   Pcnt     Occurrence    Outflow
  Storage Unit           1000 m³   Full   Loss   Loss     1000 m³   Full    days hr:min        LPS
  ------------------------------------------------------------------------------------------------
  CC-storage               0.751   11.7    0.0    0.0       2.701   42.1       0  02:36    1783.53
  JK-storage               0.001    0.4    0.0    0.0       0.150   51.6       0  00:00    2300.00
  
  
  ***********************
  Outfall Loading Summary
  ***********************
  
  -----------------------------------------------------------
                         Flow       Avg       Max       Total
                         Freq      Flow      Flow      Volume
  Outfall Node           Pcnt       LPS       LPS    10^6 ltr
  -----------------------------------------------------------
  CC-1                  47.68    683.00    683.00       5.151
  CC-2                  47.68    683.00    683.00       5.151
  JK-1                  12.30    998.42   1000.00       1.645
  JK-2                  12.30    998.42   1000.00       1.645
  WSC                   99.95    271.48    550.23       5.405
  -----------------------------------------------------------
  System                43.98   3634.32   3897.48      18.997
  
  
  ********************
  Link Flow Summary
  ********************
  
  -----------------------------------------------------------------------------
                                 Maximum  Time of Max   Maximum    Max/    Max/
                                  |Flow|   Occurrence   |Veloc|    Full    Full
  Link                 Type          LPS  days hr:min     m/sec    Flow   Depth
  -----------------------------------------------------------------------------
  1                    CONDUIT    550.23     0  03:08      2.82    0.19    0.30
  WS02003060WS02003069 CONDUIT    549.11     0  03:07      1.64    0.22    0.34
  WS02003066WSF200     CONDUIT    532.90     0  03:07      2.85    0.09    0.22
  WS02003067WS02003066 CONDUIT    532.72     0  03:07      1.20    0.17    0.41
  WS02003069WS02003072 CONDUIT    548.78     0  03:06      1.37    0.26    0.39
  WS02003072WS02003073 CONDUIT    548.59     0  03:07      1.43    1.18    0.37
  WS02004401WS02004402 CONDUIT    535.84     0  03:01      1.22    0.64    0.88
  WS02004402WS02004403 CONDUIT    536.48     0  03:02      1.24    0.77    0.91
  WS02004403WS02004404 CONDUIT    547.77     0  03:04      1.24    0.40    0.96
  WS02004404WS02004405 CONDUIT    595.48     0  03:05      1.45    5.83    0.97
  WS02004405WS02004406 CONDUIT    542.83     0  03:04      1.46    1.07    0.96
  WS02004406WS02004407 CONDUIT    536.67     0  03:05      1.04    0.24    0.63
  WS02004407WS02004409 CONDUIT    535.17     0  03:05      1.59    0.19    0.48
  WS02004409WS02004410 CONDUIT    534.53     0  03:05      1.06    0.69    0.67
  WS02004410WS02004411 CONDUIT    533.71     0  03:05      1.12    0.73    0.68
  WS02004411WS02004412 CONDUIT    533.20     0  03:06      1.22    0.76    0.69
  WS02004412WS02004413 CONDUIT    533.67     0  03:06      1.22    0.36    0.78
  WS02004413WS02003067 CONDUIT    532.62     0  03:06      1.10    0.23    0.59
  WS02006109WS02006110 CONDUIT    545.61     0  02:58      1.09    1.05    1.00
  WS02006110WS02006113 CONDUIT    556.52     0  02:58      1.32    0.51    0.79
  WS02006111WS02006112 CONDUIT    541.80     0  02:58      1.95    0.26    0.67
  WS02006112WS02006115 CONDUIT    545.02     0  03:02      0.82    0.32    0.88
  WS02006113WS02006111 CONDUIT    561.76     0  03:04      2.47    0.67    0.46
  WS02006115WS02006116 CONDUIT    537.41     0  03:00      1.29    0.69    0.78
  WS02006116WS02004401 CONDUIT    536.94     0  03:04      1.21    0.74    0.86
  WS02006228WS02006109 CONDUIT    544.30     0  02:58      1.08    2.38    1.00
  WS02006229WS02006228 CONDUIT    544.10     0  02:57      1.12    1.80    1.00
  WS02006230WS02006229 CONDUIT    543.49     0  02:58      1.41   12.09    1.00
  WS02006231WS02006230 CONDUIT    564.14     0  02:55      1.50    8.56    1.00
  WS02006232WS02006231 CONDUIT    560.95     0  02:55      1.46    1.18    1.00
  WS02006234WS02006232 CONDUIT    558.43     0  02:55      1.45    1.13    1.00
  WS02006235WS02006234 CONDUIT    603.36     0  01:40      1.58    6.37    1.00
  WS02006238WS02006235 CONDUIT    444.67     0  03:17      1.45    0.99    1.00
  WS02006239WS02006238 CONDUIT    427.88     0  03:17      1.11    1.37    1.00
  WS02006240WS02006239 CONDUIT    420.98     0  03:17      1.27    1.32    1.00
  WS02006242WS02006240 CONDUIT    419.92     0  03:18      1.17    1.67    1.00
  WS02006243WS02006242 CONDUIT    422.58     0  03:18      1.42    0.90    1.00
  WS02006245WS02006243 CONDUIT    431.35     0  01:44      1.44    1.28    1.00
  WS02006247WS02006245 CONDUIT    558.11     0  01:39      1.54    4.43    1.00
  WS02006248WS02006247 CONDUIT    493.24     0  01:41      1.46    1.07    1.00
  WS02006249WS02006248 CONDUIT    568.56     0  01:41      1.52    3.11    1.00
  WS02006251WS02006249 CONDUIT    544.82     0  01:41      1.99    1.57    1.00
  WS02006252WS02006251 CONDUIT    414.97     0  01:42     20.56    1.52    1.00
  WS02006256WS02006235 CONDUIT    288.91     0  00:00      4.23    3.06    1.00
  WSF200WS02003060     CONDUIT    533.54     0  03:07      2.06    0.12    0.28
  YS02001580YS02001583 CONDUIT    114.86     0  01:52      0.64    0.45    1.00
  YS02001583YS02001586 CONDUIT    152.53     0  01:52      0.63    0.23    1.00
  YS02001586YS02001590 CONDUIT    320.20     0  02:20      1.27    0.56    1.00
  YS02001590YS02001593 CONDUIT    320.69     0  02:20      1.13    2.01    1.00
  YS02001593YS02001596 CONDUIT    317.87     0  02:20      1.77    0.50    1.00
  YS02001596YS02001600 CONDUIT    318.03     0  02:20      1.25    0.62    1.00
  YS02001600YS02001601 CONDUIT    318.19     0  02:21      1.13    0.55    1.00
  YS02001601YS02001602 CONDUIT    513.17     0  01:51      1.81    1.85    1.00
  YS02001602YS02001605 CONDUIT    512.71     0  01:51      1.81   10.85    1.00
  YS02001605YS02001607 CONDUIT    512.07     0  01:51      1.81    2.81    1.00
  YS02001607YS02001610 CONDUIT    515.06     0  01:51      0.66    0.49    1.00
  YS02001610YS02001613 CONDUIT    517.61     0  01:51      0.66    0.60    1.00
  YS02001613YS02001616 CONDUIT    519.18     0  01:51      0.67    0.44    1.00
  YS02001616YS02001619 CONDUIT    512.05     0  02:34      0.67    0.89    1.00
  YS02001619YS02001622 CONDUIT    974.96     0  02:24      1.24    1.44    1.00
  YS02001622YS02001625 CONDUIT    974.72     0  02:24      1.24    0.52    1.00
  YS02001625YS02001629 CONDUIT    974.87     0  02:24      1.24    0.46    1.00
  YS02001629YS02163301 CONDUIT    976.67     0  02:24      1.24    1.20    1.00
  YS02001633YS02163601 CONDUIT   1381.43     0  01:55      1.76    1.45    1.00
  YS02001641YS02001644 CONDUIT   1379.32     0  01:55      1.76    4.46    1.00
  YS02001644YS02001647 CONDUIT   1794.14     0  01:55      2.28    1.05    1.00
  YS02001647YS02001649 CONDUIT   1799.32     0  01:55      2.31    0.95    1.00
  YS02001649YS02001757 CONDUIT   2025.31     0  01:55      2.58    1.23    1.00
  YS02001652YS02001649 CONDUIT    953.66     0  02:02      1.21    0.47    1.00
  YS02001655YS02001652 CONDUIT    953.34     0  02:02      1.31    0.46    1.00
  YS02001658YS02001655 CONDUIT    952.86     0  02:02      1.87    0.40    1.00
  YS02001661YS02001658 CONDUIT    953.14     0  02:02      2.32    0.37    1.00
  YS02001664YS02001661 CONDUIT    951.48     0  02:02      2.32    0.30    0.81
  YS02001745YS02001748 CONDUIT    602.69     0  02:02      2.18    0.23    0.91
  YS02001748YS02001751 CONDUIT    602.66     0  02:02      1.70    0.30    1.00
  YS02001751YS02001754 CONDUIT    602.93     0  02:02      1.37    0.29    1.00
  YS02001754YS02001757 CONDUIT    603.67     0  02:02      0.77    0.24    1.00
  YS02001757CaochengTiaoxuchi CONDUIT   3412.61     0  02:07      6.98    1.48    0.93
  YS02001759YS02001757 CONDUIT   1395.08     0  02:01      1.78    0.99    1.00
  YS02001762YS02001759 CONDUIT    818.33     0  02:08      1.04    0.94    1.00
  YS02001765YS02001762 CONDUIT    817.57     0  02:08      1.04    0.77    1.00
  YS02001767YS02001765 CONDUIT    817.52     0  02:08      1.04    1.03    1.00
  YS02001770YS02001767 CONDUIT    816.92     0  02:08      1.04    3.24    1.00
  YS02001774YS02001770 CONDUIT    600.15     0  02:02      0.76    0.38    1.00
  YS02001779YS02001774 CONDUIT    600.70     0  02:02      0.76    0.30    1.00
  YS02001783YS02001784 CONDUIT   1167.03     0  02:01      2.32    1.61    1.00
  YS02001784YS02001785 CONDUIT   1168.66     0  02:01      2.32    2.72    1.00
  YS02001786YS02001788 CONDUIT   1169.01     0  02:01      2.49    2.25    0.89
  YS02001788YS02001790 CONDUIT   1185.04     0  02:00      2.73    0.87    0.84
  YS02001790YS02001791 CONDUIT   1291.08     0  02:01      3.43    1.40    0.70
  YS02001791YS02001793 CONDUIT   1259.90     0  02:02      6.39    0.54    0.43
  YS02001793JiankangQianchi CONDUIT   1308.34     0  02:02     25.18    0.10    0.50
  YS02001882YS02001884 CONDUIT     39.48     0  01:53      0.14    0.05    1.00
  YS02001884YS02001887 CONDUIT     75.14     0  01:53      0.10    0.10    1.00
  YS02001887YS02001890 CONDUIT    887.58     0  02:01      1.13    1.52    1.00
  YS02001890YS02001895 CONDUIT    517.74     0  02:07      0.66    0.24    1.00
  YS02001895YS02001898 CONDUIT    517.66     0  02:07      0.66    0.90    1.00
  YS02001898YS02001901 CONDUIT    517.62     0  02:07      0.66    0.33    1.00
  YS02001901YS02001904 CONDUIT    517.61     0  02:07      0.66    0.80    1.00
  YS02001904YS02001907 CONDUIT    517.64     0  02:07      0.66    0.18    1.00
  YS02001907YS02006553 CONDUIT    808.22     0  02:21      0.90    0.95    1.00
  YS02001910YS02001907 CONDUIT   1529.57     0  02:02      1.95    0.86    1.00
  YS02001915YS02001910 CONDUIT   1529.86     0  02:02      1.95    0.76    1.00
  YS02001918YS02001915 CONDUIT    508.73     0  02:02      0.65    0.28    1.00
  YS02001920YS02001918 CONDUIT    508.79     0  02:02      0.65    0.49    1.00
  YS02001923YS02001920 CONDUIT    505.98     0  02:02      0.69    0.23    1.00
  YS02001926YS02001923 CONDUIT    505.18     0  02:02      0.96    0.72    1.00
  YS02001929YS02001926 CONDUIT    505.00     0  02:02      1.12    0.24    1.00
  YS02006553YS02006556 CONDUIT    809.63     0  02:21      1.03    0.69    1.00
  YS02006556YS02006558 CONDUIT    812.25     0  02:21      1.03    0.64    1.00
  YS02006558YS02006561 CONDUIT   1168.01     0  02:01      4.13    2.58    1.00
  YS02006561YS02001783 CONDUIT   1166.74     0  02:01      2.32    0.60    1.00
  YS02163301YS02001633 CONDUIT    976.93     0  02:24      1.24    0.92    1.00
  YS02163601YS02164001 CONDUIT   1381.08     0  01:55      1.76    1.22    1.00
  YS02164001YS02001641 CONDUIT   1379.75     0  01:55      1.76    1.88    1.00
  CC-R1                PUMP       683.00     0  00:00              1.00
  CC-R2                PUMP       683.00     0  00:00              1.00
  CC-S1                PUMP       200.00     0  00:00              1.00
  CC-S2                PUMP       200.00     0  00:00              1.00
  JK-R1                PUMP      1000.00     0  00:00              1.00
  JK-R2                PUMP      1000.00     0  00:00              1.00
  JK-S                 PUMP       300.00     0  00:00              1.00
  
  
  ***************************
  Flow Classification Summary
  ***************************
  
  -------------------------------------------------------------------------------------
                      Adjusted    ---------- Fraction of Time in Flow Class ---------- 
                       /Actual         Up    Down  Sub   Sup   Up    Down  Norm  Inlet 
  Conduit               Length    Dry  Dry   Dry   Crit  Crit  Crit  Crit  Ltd   Ctrl  
  -------------------------------------------------------------------------------------
  1                       1.00   0.00  0.00  0.00  0.00  1.00  0.00  0.00  0.32  0.00
  WS02003060WS02003069    1.00   0.00  0.00  0.00  0.98  0.02  0.00  0.00  0.72  0.00
  WS02003066WSF200        1.00   0.05  0.00  0.00  0.00  0.95  0.00  0.00  0.87  0.00
  WS02003067WS02003066    1.00   0.05  0.00  0.00  0.95  0.00  0.00  0.00  0.00  0.00
  WS02003069WS02003072    1.00   0.00  0.00  0.00  0.99  0.01  0.00  0.00  0.74  0.00
  WS02003072WS02003073    1.00   0.00  0.00  0.00  0.00  0.00  0.00  1.00  0.00  0.00
  WS02004401WS02004402    1.00   0.02  0.00  0.00  0.98  0.00  0.00  0.00  0.00  0.00
  WS02004402WS02004403    1.00   0.02  0.00  0.00  0.98  0.00  0.00  0.00  0.00  0.00
  WS02004403WS02004404    1.00   0.00  0.03  0.00  0.97  0.00  0.00  0.00  0.00  0.00
  WS02004404WS02004405    1.00   0.00  0.00  0.00  1.00  0.00  0.00  0.00  0.02  0.00
  WS02004405WS02004406    1.00   0.00  0.00  0.00  1.00  0.00  0.00  0.00  0.00  0.00
  WS02004406WS02004407    1.00   0.00  0.03  0.00  0.97  0.00  0.00  0.00  0.00  0.00
  WS02004407WS02004409    1.00   0.03  0.00  0.00  0.95  0.01  0.00  0.00  0.96  0.00
  WS02004409WS02004410    1.00   0.03  0.00  0.00  0.96  0.00  0.00  0.00  0.00  0.00
  WS02004410WS02004411    1.00   0.04  0.00  0.00  0.96  0.00  0.00  0.00  0.00  0.00
  WS02004411WS02004412    1.00   0.04  0.00  0.00  0.96  0.00  0.00  0.00  0.00  0.00
  WS02004412WS02004413    1.00   0.04  0.00  0.00  0.96  0.00  0.00  0.00  0.00  0.00
  WS02004413WS02003067    1.00   0.04  0.01  0.00  0.00  0.00  0.95  0.00  0.00  0.00
  WS02006109WS02006110    1.00   0.00  0.01  0.00  0.98  0.00  0.01  0.00  0.00  0.00
  WS02006110WS02006113    1.00   0.01  0.01  0.00  0.98  0.00  0.00  0.00  0.00  0.00
  WS02006111WS02006112    1.00   0.02  0.00  0.00  0.98  0.00  0.00  0.00  0.98  0.00
  WS02006112WS02006115    1.00   0.02  0.00  0.00  0.97  0.00  0.00  0.00  0.00  0.00
  WS02006113WS02006111    1.00   0.02  0.00  0.00  0.00  0.98  0.00  0.00  0.14  0.00
  WS02006115WS02006116    1.00   0.02  0.00  0.00  0.97  0.00  0.00  0.01  0.00  0.00
  WS02006116WS02004401    1.00   0.02  0.00  0.00  0.98  0.00  0.00  0.00  0.00  0.00
  WS02006228WS02006109    1.00   0.00  0.00  0.00  1.00  0.00  0.00  0.00  0.01  0.00
  WS02006229WS02006228    1.00   0.00  0.00  0.00  0.99  0.00  0.00  0.01  0.00  0.00
  WS02006230WS02006229    1.00   0.00  0.00  0.00  0.99  0.00  0.00  0.01  0.03  0.00
  WS02006231WS02006230    1.00   0.00  0.00  0.00  0.27  0.00  0.73  0.00  0.00  0.00
  WS02006232WS02006231    1.00   0.00  0.00  0.00  0.99  0.00  0.01  0.00  0.00  0.00
  WS02006234WS02006232    1.00   0.00  0.00  0.00  1.00  0.00  0.00  0.00  0.01  0.00
  WS02006235WS02006234    1.00   0.00  0.00  0.00  0.95  0.00  0.05  0.00  0.00  0.00
  WS02006238WS02006235    1.00   0.00  0.00  0.00  1.00  0.00  0.00  0.00  0.01  0.00
  WS02006239WS02006238    1.00   0.00  0.00  0.00  1.00  0.00  0.00  0.00  0.07  0.00
  WS02006240WS02006239    1.00   0.00  0.00  0.00  0.91  0.00  0.00  0.09  0.21  0.00
  WS02006242WS02006240    1.00   0.00  0.00  0.00  0.92  0.00  0.07  0.00  0.00  0.00
  WS02006243WS02006242    1.00   0.00  0.00  0.00  0.98  0.00  0.00  0.02  0.56  0.00
  WS02006245WS02006243    1.00   0.00  0.00  0.00  0.73  0.00  0.00  0.27  0.02  0.00
  WS02006247WS02006245    1.00   0.00  0.00  0.00  0.97  0.00  0.00  0.02  0.00  0.00
  WS02006248WS02006247    1.00   0.00  0.00  0.00  0.98  0.00  0.00  0.02  0.34  0.00
  WS02006249WS02006248    1.00   0.00  0.00  0.00  0.45  0.00  0.55  0.00  0.00  0.00
  WS02006251WS02006249    1.00   0.00  0.00  0.00  0.99  0.01  0.00  0.00  0.56  0.00
  WS02006252WS02006251    1.00   0.00  0.53  0.00  0.19  0.00  0.28  0.00  0.00  0.00
  WS02006256WS02006235    1.00   0.00  0.00  0.00  0.96  0.04  0.00  0.00  0.01  0.00
  WSF200WS02003060        1.00   0.00  0.05  0.00  0.24  0.71  0.00  0.00  0.65  0.00
  YS02001580YS02001583    1.00   0.23  0.56  0.00  0.20  0.00  0.00  0.00  0.66  0.00
  YS02001583YS02001586    1.00   0.41  0.33  0.00  0.26  0.00  0.00  0.00  0.66  0.00
  YS02001586YS02001590    1.00   0.13  0.00  0.00  0.44  0.04  0.00  0.39  0.37  0.00
  YS02001590YS02001593    1.00   0.13  0.01  0.00  0.13  0.00  0.74  0.00  0.00  0.00
  YS02001593YS02001596    1.00   0.14  0.00  0.00  0.15  0.01  0.00  0.71  0.02  0.00
  YS02001596YS02001600    1.00   0.14  0.00  0.00  0.21  0.01  0.00  0.64  0.04  0.00
  YS02001600YS02001601    1.00   0.13  0.01  0.00  0.86  0.00  0.00  0.00  0.59  0.00
  YS02001601YS02001602    1.00   0.13  0.01  0.00  0.86  0.00  0.00  0.00  0.00  0.00
  YS02001602YS02001605    1.00   0.14  0.00  0.00  0.86  0.00  0.00  0.00  0.00  0.00
  YS02001605YS02001607    1.00   0.14  0.00  0.00  0.86  0.00  0.00  0.00  0.00  0.00
  YS02001607YS02001610    1.00   0.13  0.01  0.00  0.86  0.00  0.00  0.00  0.01  0.00
  YS02001610YS02001613    1.00   0.13  0.00  0.00  0.87  0.00  0.00  0.00  0.00  0.00
  YS02001613YS02001616    1.00   0.13  0.00  0.00  0.87  0.00  0.00  0.00  0.00  0.00
  YS02001616YS02001619    1.00   0.13  0.00  0.00  0.87  0.00  0.00  0.00  0.00  0.00
  YS02001619YS02001622    1.00   0.13  0.00  0.00  0.87  0.00  0.00  0.00  0.27  0.00
  YS02001622YS02001625    1.00   0.13  0.00  0.00  0.87  0.00  0.00  0.00  0.04  0.00
  YS02001625YS02001629    1.00   0.13  0.05  0.00  0.17  0.00  0.65  0.00  0.00  0.00
  YS02001629YS02163301    1.00   0.15  0.01  0.00  0.84  0.00  0.00  0.00  0.00  0.00
  YS02001633YS02163601    1.00   0.00  0.01  0.00  0.99  0.00  0.00  0.00  0.15  0.00
  YS02001641YS02001644    1.00   0.00  0.01  0.00  0.99  0.00  0.00  0.00  0.00  0.00
  YS02001644YS02001647    1.00   0.00  0.17  0.00  0.83  0.00  0.00  0.00  0.00  0.00
  YS02001647YS02001649    1.00   0.00  0.17  0.00  0.50  0.33  0.00  0.00  0.55  0.00
  YS02001649YS02001757    1.00   0.00  0.00  0.00  0.83  0.17  0.00  0.00  0.75  0.00
  YS02001652YS02001649    1.00   0.00  0.00  0.00  0.97  0.03  0.00  0.00  0.73  0.00
  YS02001655YS02001652    1.00   0.00  0.00  0.00  0.19  0.01  0.00  0.79  0.10  0.00
  YS02001658YS02001655    1.00   0.00  0.14  0.00  0.61  0.25  0.00  0.00  0.72  0.00
  YS02001661YS02001658    1.00   0.14  0.00  0.00  0.45  0.41  0.00  0.00  0.71  0.00
  YS02001664YS02001661    1.00   0.13  0.00  0.00  0.72  0.15  0.00  0.00  0.85  0.00
  YS02001745YS02001748    1.00   0.00  0.00  0.00  0.04  0.01  0.00  0.95  0.02  0.00
  YS02001748YS02001751    1.00   0.00  0.00  0.00  0.76  0.24  0.00  0.00  0.82  0.00
  YS02001751YS02001754    1.00   0.00  0.00  0.00  0.12  0.01  0.00  0.86  0.05  0.00
  YS02001754YS02001757    1.00   0.00  0.00  0.00  1.00  0.00  0.00  0.00  0.84  0.00
  YS02001757CaochengTiaoxuchi    1.00   0.00  0.00  0.00  0.15  0.85  0.00  0.00  0.13  0.00
  YS02001759YS02001757    1.00   0.00  0.00  0.00  1.00  0.00  0.00  0.00  0.64  0.00
  YS02001762YS02001759    1.00   0.00  0.00  0.00  1.00  0.00  0.00  0.00  0.05  0.00
  YS02001765YS02001762    1.00   0.00  0.00  0.00  1.00  0.00  0.00  0.00  0.72  0.00
  YS02001767YS02001765    1.00   0.00  0.00  0.00  1.00  0.00  0.00  0.00  0.00  0.00
  YS02001770YS02001767    1.00   0.00  0.00  0.00  1.00  0.00  0.00  0.00  0.00  0.00
  YS02001774YS02001770    1.00   0.00  0.13  0.00  0.71  0.00  0.16  0.00  0.03  0.00
  YS02001779YS02001774    1.00   0.00  0.00  0.00  1.00  0.00  0.00  0.00  0.78  0.00
  YS02001783YS02001784    1.00   0.00  0.18  0.00  0.82  0.00  0.00  0.00  0.55  0.00
  YS02001784YS02001785    1.00   0.00  0.00  0.00  1.00  0.00  0.00  0.00  0.16  0.00
  YS02001786YS02001788    1.00   0.00  0.00  0.00  0.79  0.21  0.00  0.00  0.00  0.00
  YS02001788YS02001790    1.00   0.00  0.00  0.00  0.22  0.78  0.00  0.00  0.79  0.00
  YS02001790YS02001791    1.00   0.00  0.00  0.00  0.01  0.99  0.00  0.00  0.16  0.00
  YS02001791YS02001793    1.00   0.00  0.00  0.00  0.00  1.00  0.00  0.00  0.01  0.00
  YS02001793JiankangQianchi    1.00   0.00  0.00  0.00  0.00  1.00  0.00  0.00  0.21  0.00
  YS02001882YS02001884    1.00   0.15  0.01  0.00  0.84  0.00  0.00  0.00  0.00  0.00
  YS02001884YS02001887    1.00   0.06  0.05  0.00  0.89  0.00  0.00  0.00  0.00  0.00
  YS02001887YS02001890    1.00   0.00  0.00  0.00  0.97  0.00  0.03  0.00  0.00  0.00
  YS02001890YS02001895    1.00   0.00  0.16  0.00  0.84  0.00  0.00  0.00  0.00  0.00
  YS02001895YS02001898    1.00   0.16  0.00  0.00  0.82  0.00  0.02  0.00  0.00  0.00
  YS02001898YS02001901    1.00   0.16  0.00  0.00  0.83  0.00  0.00  0.00  0.01  0.00
  YS02001901YS02001904    1.00   0.16  0.00  0.00  0.84  0.00  0.00  0.00  0.00  0.00
  YS02001904YS02001907    1.00   0.00  0.16  0.00  0.84  0.00  0.00  0.00  0.00  0.00
  YS02001907YS02006553    1.00   0.00  0.02  0.00  0.98  0.00  0.00  0.00  0.00  0.00
  YS02001910YS02001907    1.00   0.00  0.00  0.00  0.97  0.00  0.00  0.03  0.12  0.00
  YS02001915YS02001910    1.00   0.00  0.00  0.00  0.97  0.03  0.00  0.00  0.16  0.00
  YS02001918YS02001915    1.00   0.00  0.01  0.00  0.98  0.02  0.00  0.00  0.74  0.00
  YS02001920YS02001918    1.00   0.00  0.01  0.00  0.99  0.00  0.00  0.00  0.00  0.00
  YS02001923YS02001920    1.00   0.00  0.00  0.00  1.00  0.00  0.00  0.00  0.91  0.00
  YS02001926YS02001923    1.00   0.00  0.07  0.00  0.07  0.00  0.86  0.00  0.00  0.00
  YS02001929YS02001926    1.00   0.00  0.13  0.00  0.87  0.00  0.00  0.00  0.81  0.00
  YS02006553YS02006556    1.00   0.01  0.00  0.00  0.99  0.00  0.00  0.00  0.03  0.00
  YS02006556YS02006558    1.00   0.00  0.00  0.00  1.00  0.00  0.00  0.00  0.00  0.00
  YS02006558YS02006561    1.00   0.18  0.00  0.00  0.07  0.76  0.00  0.00  0.18  0.00
  YS02006561YS02001783    1.00   0.18  0.00  0.00  0.10  0.72  0.00  0.00  0.67  0.00
  YS02163301YS02001633    1.00   0.00  0.15  0.00  0.85  0.00  0.00  0.00  0.00  0.00
  YS02163601YS02164001    1.00   0.00  0.08  0.00  0.92  0.00  0.00  0.00  0.00  0.00
  YS02164001YS02001641    1.00   0.01  0.08  0.00  0.92  0.00  0.00  0.00  0.06  0.00
  
  
  *************************
  Conduit Surcharge Summary
  *************************
  
  ----------------------------------------------------------------------------
                                                           Hours        Hours 
                         --------- Hours Full --------   Above Full   Capacity
  Conduit                Both Ends  Upstream  Dnstream   Normal Flow   Limited
  ----------------------------------------------------------------------------
  WS02003072WS02003073        0.01      0.01      0.01      1.64         0.01
  WS02004404WS02004405        0.01      0.01      0.01      3.20         0.01
  WS02004405WS02004406        0.01      0.01      0.01      0.89         0.01
  WS02006109WS02006110        0.10      0.10      2.04      0.14         0.01
  WS02006110WS02006113        0.01      0.01      2.02      0.01         0.01
  WS02006111WS02006112        0.01      0.01      2.15      0.01         0.01
  WS02006112WS02006115        0.01      0.01      1.49      0.01         0.01
  WS02006228WS02006109        1.96      2.04      1.96      2.47         1.96
  WS02006229WS02006228        1.94      1.98      1.94      2.25         1.94
  WS02006230WS02006229        2.11      2.18      2.11      4.25         2.11
  WS02006231WS02006230        0.09      0.09      1.39      3.52         0.01
  WS02006232WS02006231        1.09      1.09      2.05      1.30         0.01
  WS02006234WS02006232        1.88      1.88      2.05      0.81         0.80
  WS02006235WS02006234        1.59      1.63      1.88      3.17         0.25
  WS02006238WS02006235        1.96      1.96      2.08      0.01         0.08
  WS02006239WS02006238        1.98      2.03      2.00      2.03         1.25
  WS02006240WS02006239        1.88      1.93      1.91      2.03         1.24
  WS02006242WS02006240        1.89      1.89      2.08      2.29         0.02
  WS02006243WS02006242        1.90      1.91      2.02      0.01         0.35
  WS02006245WS02006243        1.86      1.88      1.87      2.06         1.14
  WS02006247WS02006245        1.85      1.92      1.85      2.66         1.62
  WS02006248WS02006247        1.85      1.86      1.89      0.01         0.59
  WS02006249WS02006248        1.83      1.84      1.87      2.57         0.01
  WS02006251WS02006249        1.86      1.91      1.87      2.44         1.69
  WS02006252WS02006251        2.60      2.60      2.60      2.61         0.01
  WS02006256WS02006235        2.40      3.25      5.80      1.81         0.07
  YS02001580YS02001583        0.70      0.70      0.71      0.01         0.01
  YS02001583YS02001586        0.70      0.70      0.80      0.01         0.01
  YS02001586YS02001590        0.80      0.80      0.88      0.01         0.01
  YS02001590YS02001593        0.88      0.88      0.90      0.96         0.01
  YS02001593YS02001596        0.89      0.89      1.00      0.01         0.01
  YS02001596YS02001600        1.05      1.05      1.18      0.01         0.01
  YS02001600YS02001601        1.26      1.26      1.52      0.01         0.01
  YS02001601YS02001602        1.43      1.43      1.56      1.21         0.01
  YS02001602YS02001605        1.38      1.38      1.43      2.33         0.01
  YS02001605YS02001607        1.34      1.38      1.34      1.49         1.34
  YS02001607YS02001610        0.80      0.80      0.83      0.01         0.01
  YS02001610YS02001613        0.79      0.79      0.83      0.01         0.01
  YS02001613YS02001616        0.74      0.74      0.79      0.01         0.01
  YS02001616YS02001619        0.73      0.73      0.74      0.01         0.05
  YS02001619YS02001622        0.71      0.73      0.71      0.93         0.70
  YS02001622YS02001625        0.71      0.71      0.93      0.01         0.01
  YS02001625YS02001629        0.60      0.60      0.93      0.01         0.01
  YS02001629YS02163301        0.91      0.91      0.92      0.42         0.39
  YS02001633YS02163601        0.94      0.94      0.97      0.55         0.55
  YS02001641YS02001644        0.73      0.81      0.73      1.59         0.72
  YS02001644YS02001647        0.45      0.45      0.73      0.04         0.01
  YS02001647YS02001649        0.45      0.45      0.50      0.01         0.01
  YS02001649YS02001757        0.48      0.50      0.48      0.45         0.32
  YS02001652YS02001649        0.38      0.38      0.50      0.01         0.01
  YS02001655YS02001652        0.28      0.28      0.36      0.01         0.01
  YS02001658YS02001655        0.20      0.20      0.28      0.01         0.01
  YS02001661YS02001658        0.04      0.04      0.20      0.01         0.01
  YS02001664YS02001661        0.01      0.01      0.11      0.01         0.01
  YS02001745YS02001748        0.01      0.01      0.13      0.01         0.01
  YS02001748YS02001751        0.17      0.17      0.22      0.01         0.01
  YS02001751YS02001754        0.22      0.22      0.28      0.01         0.01
  YS02001754YS02001757        0.30      0.30      0.48      0.01         0.01
  YS02001757CaochengTiaoxuchi        0.01      0.48      0.01      0.58         0.01
  YS02001759YS02001757        0.43      0.43      0.48      0.01         0.03
  YS02001762YS02001759        0.40      0.40      0.43      0.01         0.03
  YS02001765YS02001762        0.38      0.38      0.40      0.01         0.01
  YS02001767YS02001765        0.36      0.36      0.38      0.01         0.05
  YS02001770YS02001767        0.36      0.38      0.36      0.67         0.36
  YS02001774YS02001770        0.36      0.36      0.41      0.01         0.01
  YS02001779YS02001774        0.31      0.31      0.41      0.01         0.01
  YS02001783YS02001784        0.58      0.61      0.58      0.77         0.58
  YS02001784YS02001785        0.46      0.58      0.46      1.03         0.46
  YS02001786YS02001788        0.01      0.46      0.01      0.88         0.01
  YS02001790YS02001791        0.01      0.01      0.01      0.57         0.01
  YS02001882YS02001884        0.55      0.55      0.56      0.01         0.01
  YS02001884YS02001887        0.58      0.58      0.59      0.01         0.01
  YS02001887YS02001890        0.61      0.61      0.62      0.14         0.01
  YS02001890YS02001895        0.54      0.54      0.64      0.01         0.01
  YS02001895YS02001898        0.53      0.53      0.54      0.01         0.01
  YS02001898YS02001901        0.54      0.54      0.58      0.01         0.01
  YS02001901YS02001904        0.57      0.57      0.58      0.01         0.01
  YS02001904YS02001907        0.57      0.57      0.85      0.01         0.01
  YS02001907YS02006553        1.03      1.03      1.11      0.01         0.01
  YS02001910YS02001907        0.64      0.64      0.83      0.01         0.01
  YS02001915YS02001910        0.54      0.54      0.64      0.01         0.01
  YS02001918YS02001915        0.45      0.45      0.54      0.01         0.01
  YS02001920YS02001918        0.45      0.45      0.47      0.01         0.01
  YS02001923YS02001920        0.41      0.41      0.47      0.01         0.01
  YS02001926YS02001923        0.14      0.14      0.17      0.01         0.01
  YS02001929YS02001926        0.01      0.01      0.17      0.01         0.01
  YS02006553YS02006556        0.74      0.74      0.85      0.01         0.01
  YS02006556YS02006558        0.79      0.79      0.87      0.01         0.01
  YS02006558YS02006561        0.49      0.72      0.49      0.97         0.49
  YS02006561YS02001783        0.41      0.41      0.61      0.01         0.01
  YS02163301YS02001633        0.92      0.92      0.97      0.01         0.03
  YS02163601YS02164001        0.83      0.83      0.97      0.35         0.01
  YS02164001YS02001641        0.81      0.83      0.81      0.82         0.61
  
  
  ***************
  Pumping Summary
  ***************
  
  ---------------------------------------------------------------------------------------------------------
                                                  Min       Avg       Max     Total     Power    % Time Off
                        Percent   Number of      Flow      Flow      Flow    Volume     Usage    Pump Curve
  Pump                 Utilized   Start-Ups       LPS       LPS       LPS  10^6 ltr     Kw-hr    Low   High
  ---------------------------------------------------------------------------------------------------------
  CC-R1                   26.46           7      0.00    683.00    683.00     5.150     84.53    0.0  100.0
  CC-R2                   26.46           7      0.00    683.00    683.00     5.150     84.53    0.0  100.0
  CC-S1                   32.92          17      0.00    200.00    200.00     1.876     15.05    0.0   43.9
  CC-S2                   32.92          17      0.00    200.00    200.00     1.876     15.05    0.0   43.9
  JK-R1                    5.87         452      0.00    998.42   1000.00     1.668      4.05    0.0    0.0
  JK-R2                    5.87         452      0.00    998.42   1000.00     1.668      4.05    0.0    0.0
  JK-S                    19.48         692      0.00    296.82    300.00     1.613     36.99    0.0    0.0
  

  Analysis begun on:  Thu Jan 16 14:21:23 2025
  Analysis ended on:  Thu Jan 16 14:21:24 2025
  Total elapsed time: 00:00:01