
  EPA STORM WATER MANAGEMENT MODEL - VERSION 5.2 (Build 5.2.4)
  PYSWMM TOOLKIT API - VERSION v1.0 (2023-11-27)
  ------------------------------------------------------------

  WARNING 04: minimum elevation drop used for Conduit WS02004404WS02004405
  WARNING 03: negative offset ignored for Link YS02001904YS02001907
  
  ****************
  Analysis Options
  ****************
  Flow Units ............... LPS
  Process Models:
    Rainfall/Runoff ........ YES
    RDII ................... NO
    Snowmelt ............... NO
    Groundwater ............ NO
    Flow Routing ........... YES
    Ponding Allowed ........ NO
    Water Quality .......... NO
  Infiltration Method ...... HORTON
  Flow Routing Method ...... DYNWAVE
  Surcharge Method ......... EXTRAN
  Starting Date ............ 08/28/2015 08:00:00
  Ending Date .............. 08/28/2015 16:00:00
  Antecedent Dry Days ...... 8.0
  Report Time Step ......... 00:01:00
  Wet Time Step ............ 00:01:00
  Dry Time Step ............ 00:01:00
  Routing Time Step ........ 30.00 sec
  Variable Time Step ....... YES
  Maximum Trials ........... 8
  Number of Threads ........ 4
  Head Tolerance ........... 0.001500 m
  
  
  **************************        Volume         Depth
  Runoff Quantity Continuity     hectare-m            mm
  **************************     ---------       -------
  Total Precipitation ......         2.911        87.751
  Evaporation Loss .........         0.000         0.000
  Infiltration Loss ........         0.103         3.091
  Surface Runoff ...........         2.776        83.682
  Final Storage ............         0.033         0.997
  Continuity Error (%) .....        -0.023
  
  
  **************************        Volume        Volume
  Flow Routing Continuity        hectare-m      10^6 ltr
  **************************     ---------     ---------
  Dry Weather Inflow .......         0.025         0.248
  Wet Weather Inflow .......         2.775        27.753
  Groundwater Inflow .......         0.000         0.000
  RDII Inflow ..............         0.000         0.000
  External Inflow ..........         0.083         0.825
  External Outflow .........         2.113        21.130
  Flooding Loss ............         1.045        10.452
  Evaporation Loss .........         0.000         0.000
  Exfiltration Loss ........         0.000         0.000
  Initial Stored Volume ....         0.243         2.431
  Final Stored Volume ......         0.039         0.394
  Continuity Error (%) .....        -2.297
  
  
  *************************
  Highest Continuity Errors
  *************************
  Node WS02006256 (-14.62%)
  Node JK-storage (-8.79%)
  Node YS02001583 (-5.28%)
  Node YS02001884 (5.17%)
  
  
  ***************************
  Time-Step Critical Elements
  ***************************
  Link WS02006238WS02006235 (35.58%)
  Link YS02001793JiankangQianchi (34.25%)
  Link WS02003066WSF200 (6.46%)
  Link WS02004404WS02004405 (6.16%)
  Link WS02006235WS02006234 (1.98%)
  
  
  ********************************
  Highest Flow Instability Indexes
  ********************************
  Link WS02006229WS02006228 (51)
  Link WS02006256WS02006235 (43)
  Link WS02006252WS02006251 (42)
  Link WS02006113WS02006111 (38)
  Link WS02006228WS02006109 (35)
  
  
  *********************************
  Most Frequent Nonconverging Nodes
  *********************************
  Node CC-1 (52.83%)
  Node CC-2 (52.83%)
  Node JK-1 (52.83%)
  Node JK-2 (52.83%)
  Node WSC (52.83%)
  
  
  *************************
  Routing Time Step Summary
  *************************
  Minimum Time Step           :     0.02 sec
  Average Time Step           :     2.48 sec
  Maximum Time Step           :     6.43 sec
  % of Time in Steady State   :     0.00
  Average Iterations per Step :     5.66
  % of Steps Not Converging   :    52.83
  Time Step Frequencies       :
     30.000 - 13.228 sec      :     0.00 %
     13.228 -  5.833 sec      :     4.21 %
      5.833 -  2.572 sec      :    35.05 %
      2.572 -  1.134 sec      :    43.92 %
      1.134 -  0.500 sec      :    16.82 %
  
  
  ***************************
  Subcatchment Runoff Summary
  ***************************
  
  ------------------------------------------------------------------------------------------------------------------------------
                            Total      Total      Total      Total     Imperv       Perv      Total       Total     Peak  Runoff
                           Precip      Runon       Evap      Infil     Runoff     Runoff     Runoff      Runoff   Runoff   Coeff
  Subcatchment                 mm         mm         mm         mm         mm         mm         mm    10^6 ltr      LPS
  ------------------------------------------------------------------------------------------------------------------------------
  sub60                     87.75       0.00       0.00       1.86      76.02       8.67      84.69        1.11   729.62   0.965
  sub61                     87.75       0.00       0.00       2.70      71.71      12.22      83.93        1.54  1012.68   0.956
  sub62                     87.75       0.00       0.00       1.24      79.45       5.78      85.23        2.34  1417.96   0.971
  sub63                     87.75       0.00       0.00       4.97      61.34      20.49      81.82        1.86  1136.09   0.932
  sub64                     87.75       0.00       0.00       2.51      73.39      10.65      84.04        2.02  1165.11   0.958
  sub65                     87.75       0.00       0.00       2.18      75.09       9.23      84.33        2.32  1302.81   0.961
  sub66                     87.75       0.00       0.00       6.12      61.23      19.33      80.55        3.76  1717.56   0.918
  sub67                     87.75       0.00       0.00       1.20      79.49       5.83      85.32        1.59  1088.84   0.972
  sub68                     87.75       0.00       0.00       2.24      74.28      10.05      84.34        2.32  1459.21   0.961
  sub69                     87.75       0.00       0.00       2.00      74.48      11.16      85.64        3.17  1732.75   0.976
  sub70                     87.75       0.00       0.00       6.64      57.75      23.19      80.94        2.34   965.12   0.922
  sub71                     87.75       0.00       0.00       1.27      79.41       5.75      85.15        2.23  1259.78   0.970
  sub72                     87.75       0.00       0.00       1.13      80.21       5.01      85.22        1.17   610.48   0.971
  
  
  ******************
  Node Depth Summary
  ******************
  
  ---------------------------------------------------------------------------------
                                 Average  Maximum  Maximum  Time of Max    Reported
                                   Depth    Depth      HGL   Occurrence   Max Depth
  Node                 Type       Meters   Meters   Meters  days hr:min      Meters
  ---------------------------------------------------------------------------------
  WS02003060           JUNCTION     0.25     0.38     5.31     0  03:09        0.38
  WS02003066           JUNCTION     0.20     0.30     5.85     0  03:09        0.30
  WS02003067           JUNCTION     0.51     0.70     6.02     0  03:09        0.70
  WS02003069           JUNCTION     0.28     0.43     5.01     0  03:10        0.43
  WS02003072           JUNCTION     0.34     0.50     4.87     0  03:11        0.50
  WS02003073           JUNCTION     0.19     0.30     4.36     0  03:11        0.30
  WS02004401           JUNCTION     0.62     0.87     6.87     0  03:06        0.87
  WS02004402           JUNCTION     0.65     0.90     6.86     0  03:07        0.90
  WS02004403           JUNCTION     0.67     0.91     6.84     0  03:06        0.91
  WS02004404           JUNCTION     0.75     1.00     6.85     0  03:06        0.99
  WS02004405           JUNCTION     0.73     0.96     6.81     0  03:06        0.96
  WS02004406           JUNCTION     0.74     0.95     6.78     0  03:06        0.95
  WS02004407           JUNCTION     0.19     0.29     6.61     0  03:07        0.29
  WS02004409           JUNCTION     0.42     0.66     6.43     0  03:08        0.66
  WS02004410           JUNCTION     0.44     0.68     6.40     0  03:09        0.68
  WS02004411           JUNCTION     0.46     0.69     6.37     0  03:08        0.69
  WS02004412           JUNCTION     0.48     0.69     6.33     0  03:08        0.69
  WS02004413           JUNCTION     0.63     0.85     6.32     0  03:08        0.85
  WS02006109           JUNCTION     0.70     1.06     7.67     0  01:32        0.98
  WS02006110           JUNCTION     0.69     1.08     7.66     0  01:32        0.94
  WS02006111           JUNCTION     0.19     0.29     6.99     0  03:02        0.28
  WS02006112           JUNCTION     0.79     1.08     6.96     0  03:06        1.07
  WS02006113           JUNCTION     0.30     0.46     7.35     0  03:02        0.46
  WS02006115           JUNCTION     0.52     0.77     6.91     0  03:07        0.77
  WS02006116           JUNCTION     0.60     0.85     6.89     0  03:07        0.85
  WS02006228           JUNCTION     0.70     1.14     7.79     0  01:32        1.01
  WS02006229           JUNCTION     0.68     1.16     7.86     0  01:32        1.01
  WS02006230           JUNCTION     0.70     1.33     8.08     0  01:32        1.10
  WS02006231           JUNCTION     0.49     1.54     8.66     0  02:42        1.48
  WS02006232           JUNCTION     0.64     2.18     9.22     0  02:48        2.18
  WS02006234           JUNCTION     0.59     1.96     9.12     0  02:48        1.96
  WS02006235           JUNCTION     0.63     2.00     9.16     0  02:48        2.00
  WS02006238           JUNCTION     0.66     2.15     9.29     0  02:48        2.15
  WS02006239           JUNCTION     0.63     2.03     9.24     0  02:03        2.03
  WS02006240           JUNCTION     0.60     2.10     9.39     0  02:48        2.10
  WS02006242           JUNCTION     0.67     1.55     8.82     0  01:35        1.55
  WS02006243           JUNCTION     0.59     1.48     8.90     0  01:34        1.48
  WS02006245           JUNCTION     0.60     1.56     9.04     0  01:34        1.56
  WS02006247           JUNCTION     0.62     1.47     8.97     0  01:39        1.47
  WS02006248           JUNCTION     0.58     1.10     8.69     0  01:31        1.10
  WS02006249           JUNCTION     0.61     1.09     8.69     0  01:31        1.09
  WS02006251           JUNCTION     0.61     1.70     9.37     0  01:34        1.22
  WS02006252           JUNCTION     0.38     1.50     9.74     0  00:00        0.70
  WS02006256           JUNCTION     1.18     2.35     9.28     0  00:00        2.35
  WSF200               JUNCTION     0.18     0.29     5.52     0  03:09        0.29
  YS02001580           JUNCTION     0.19     1.05     9.59     0  01:41        0.77
  YS02001583           JUNCTION     0.23     1.14     9.64     0  01:41        0.82
  YS02001586           JUNCTION     0.35     1.13     9.30     0  01:41        1.13
  YS02001590           JUNCTION     0.47     1.40     9.26     0  01:41        1.37
  YS02001593           JUNCTION     0.40     1.40     9.26     0  01:39        1.28
  YS02001596           JUNCTION     0.55     1.68     9.10     0  01:39        1.65
  YS02001600           JUNCTION     0.65     1.87     9.00     0  01:39        1.87
  YS02001601           JUNCTION     0.83     2.06     8.90     0  01:39        2.06
  YS02001602           JUNCTION     0.73     1.87     8.77     0  01:41        1.87
  YS02001605           JUNCTION     0.67     1.78     8.68     0  01:41        1.78
  YS02001607           JUNCTION     0.62     1.68     8.53     0  01:41        1.68
  YS02001610           JUNCTION     0.66     1.68     8.48     0  01:41        1.68
  YS02001613           JUNCTION     0.62     1.70     8.54     0  01:41        1.70
  YS02001616           JUNCTION     0.55     1.61     8.52     0  01:41        1.61
  YS02001619           JUNCTION     0.53     1.61     8.54     0  01:41        1.61
  YS02001622           JUNCTION     0.52     1.59     8.49     0  01:41        1.58
  YS02001625           JUNCTION     0.76     1.78     8.38     0  01:41        1.78
  YS02001629           JUNCTION     0.66     1.85     8.40     0  01:41        1.85
  YS02001633           JUNCTION     0.73     2.04     8.50     0  01:45        2.03
  YS02001641           JUNCTION     0.68     1.97     8.41     0  01:45        1.95
  YS02001644           JUNCTION     0.66     1.92     8.35     0  01:45        1.92
  YS02001647           JUNCTION     0.44     1.82     8.43     0  01:46        1.77
  YS02001649           JUNCTION     0.48     2.05     8.44     0  01:45        2.02
  YS02001652           JUNCTION     0.36     2.16     8.76     0  01:45        1.88
  YS02001655           JUNCTION     0.27     2.20     9.05     0  01:45        1.69
  YS02001658           JUNCTION     0.20     2.30     9.44     0  01:45        1.49
  YS02001661           JUNCTION     0.21     1.79     9.20     0  01:46        1.29
  YS02001664           JUNCTION     0.10     0.84     8.77     0  01:46        0.81
  YS02001745           JUNCTION     0.11     2.08     9.59     0  01:46        0.96
  YS02001748           JUNCTION     0.17     2.27     9.35     0  01:46        1.37
  YS02001751           JUNCTION     0.22     2.20     9.08     0  01:46        1.53
  YS02001754           JUNCTION     0.30     2.20     8.81     0  01:46        1.77
  YS02001757           JUNCTION     0.49     2.21     8.47     0  01:46        2.08
  YS02001759           JUNCTION     0.43     2.19     8.56     0  01:46        2.09
  YS02001762           JUNCTION     0.42     2.15     8.55     0  01:46        2.05
  YS02001765           JUNCTION     0.39     2.10     8.55     0  01:46        2.00
  YS02001767           JUNCTION     0.39     2.03     8.52     0  01:46        1.96
  YS02001770           JUNCTION     0.40     1.95     8.44     0  01:46        1.95
  YS02001774           JUNCTION     0.46     2.01     8.43     0  01:46        2.01
  YS02001779           JUNCTION     0.29     1.68     8.37     0  01:44        1.68
  YS02001783           JUNCTION     0.38     1.40     7.55     0  01:44        1.24
  YS02001784           JUNCTION     0.38     1.20     7.27     0  01:44        1.12
  YS02001786           JUNCTION     0.32     0.94     6.97     0  01:44        0.88
  YS02001788           JUNCTION     0.23     0.63     6.60     0  01:48        0.62
  YS02001790           JUNCTION     0.27     0.73     6.37     0  01:49        0.72
  YS02001791           JUNCTION     0.16     0.44     5.91     0  01:48        0.43
  YS02001793           JUNCTION     0.10     0.26     5.09     0  01:48        0.25
  YS02001882           JUNCTION     0.48     1.75     8.47     0  01:42        1.67
  YS02001884           JUNCTION     0.56     1.83     8.44     0  01:42        1.78
  YS02001887           JUNCTION     0.64     1.86     8.40     0  01:42        1.86
  YS02001890           JUNCTION     0.67     1.81     8.32     0  01:42        1.81
  YS02001895           JUNCTION     0.45     1.58     8.32     0  01:44        1.58
  YS02001898           JUNCTION     0.45     1.58     8.31     0  01:44        1.58
  YS02001901           JUNCTION     0.56     1.68     8.29     0  01:44        1.68
  YS02001904           JUNCTION     0.54     1.65     8.28     0  01:43        1.64
  YS02001907           JUNCTION     0.85     1.96     8.25     0  01:43        1.96
  YS02001910           JUNCTION     0.66     2.01     8.52     0  01:48        2.01
  YS02001915           JUNCTION     0.49     2.00     8.72     0  01:48        2.00
  YS02001918           JUNCTION     0.31     1.81     8.88     0  01:44        1.81
  YS02001920           JUNCTION     0.39     2.14     9.15     0  01:44        1.81
  YS02001923           JUNCTION     0.25     2.03     9.29     0  01:44        1.56
  YS02001926           JUNCTION     0.27     1.90     9.35     0  01:44        1.41
  YS02001929           JUNCTION     0.17     1.78     9.47     0  01:44        1.21
  YS02006553           JUNCTION     0.85     2.00     8.28     0  01:44        1.98
  YS02006556           JUNCTION     0.82     2.01     8.32     0  01:44        1.98
  YS02006558           JUNCTION     0.86     2.06     8.32     0  01:44        2.05
  YS02006561           JUNCTION     0.25     1.11     7.77     0  01:44        0.91
  YS02163301           JUNCTION     0.68     1.93     8.45     0  01:45        1.93
  YS02163601           JUNCTION     0.75     2.07     8.47     0  01:45        2.03
  YS02164001           JUNCTION     0.67     1.99     8.44     0  01:45        1.94
  CC-1                 OUTFALL      0.00     0.00     0.00     0  00:00        0.00
  CC-2                 OUTFALL      0.00     0.00     0.00     0  00:00        0.00
  JK-1                 OUTFALL      0.00     0.00     0.00     0  00:00        0.00
  JK-2                 OUTFALL      0.00     0.00     0.00     0  00:00        0.00
  WSC                  OUTFALL      0.19     0.30     0.97     0  03:12        0.30
  CC-storage           STORAGE      0.37     1.16     6.66     0  02:34        1.16
  JK-storage           STORAGE      0.02     2.99     3.79     0  00:00        0.68
  
  
  *******************
  Node Inflow Summary
  *******************
  
  -------------------------------------------------------------------------------------------------
                                  Maximum  Maximum                  Lateral       Total        Flow
                                  Lateral    Total  Time of Max      Inflow      Inflow     Balance
                                   Inflow   Inflow   Occurrence      Volume      Volume       Error
  Node                 Type           LPS      LPS  days hr:min    10^6 ltr    10^6 ltr     Percent
  -------------------------------------------------------------------------------------------------
  WS02003060           JUNCTION     16.53   548.06     0  03:09       0.471        5.68       0.042
  WS02003066           JUNCTION      0.00   531.25     0  03:09           0        5.21       0.030
  WS02003067           JUNCTION      0.00   531.13     0  03:09           0        5.22       0.082
  WS02003069           JUNCTION      0.32   548.36     0  03:09     0.00912        5.69       0.078
  WS02003072           JUNCTION      0.00   548.26     0  03:10           0        5.68       0.139
  WS02003073           JUNCTION      1.82   549.95     0  03:11      0.0519        5.73       0.107
  WS02004401           JUNCTION      0.00   535.47     0  03:04           0        5.32       0.201
  WS02004402           JUNCTION      0.00   535.68     0  03:05           0        5.31       0.203
  WS02004403           JUNCTION      0.00   536.20     0  03:05           0         5.3       0.198
  WS02004404           JUNCTION      0.16   548.89     0  03:06     0.00462        5.29       0.112
  WS02004405           JUNCTION      0.04   598.13     0  03:05     0.00109        5.29       0.185
  WS02004406           JUNCTION      0.00   538.89     0  03:06           0        5.28       0.407
  WS02004407           JUNCTION      0.00   534.26     0  03:07           0        5.25       0.023
  WS02004409           JUNCTION      0.00   533.94     0  03:07           0        5.25       0.057
  WS02004410           JUNCTION      0.00   533.34     0  03:07           0        5.25       0.094
  WS02004411           JUNCTION      0.00   532.44     0  03:08           0        5.25       0.115
  WS02004412           JUNCTION      0.00   531.76     0  03:08           0        5.24       0.150
  WS02004413           JUNCTION      0.00   531.50     0  03:08           0        5.23       0.275
  WS02006109           JUNCTION      1.23   558.59     0  01:32      0.0351        5.36       0.137
  WS02006110           JUNCTION      0.00   559.71     0  01:32           0        5.36       0.137
  WS02006111           JUNCTION      0.00   560.76     0  03:04           0        5.35       0.027
  WS02006112           JUNCTION      0.00   543.00     0  03:02           0        5.35       0.391
  WS02006113           JUNCTION      0.00   568.56     0  01:32           0        5.35       0.034
  WS02006115           JUNCTION      0.00   544.91     0  03:05           0        5.33       0.140
  WS02006116           JUNCTION      0.00   537.45     0  03:05           0        5.32       0.010
  WS02006228           JUNCTION      0.00   555.32     0  01:32           0        5.33       0.056
  WS02006229           JUNCTION      0.00   553.80     0  01:32           0        5.34       0.142
  WS02006230           JUNCTION     10.28   584.05     0  03:01       0.293        5.35       0.100
  WS02006231           JUNCTION      0.00   584.99     0  01:31           0        5.05      -0.094
  WS02006232           JUNCTION      0.00   584.30     0  01:31           0        5.06       0.276
  WS02006234           JUNCTION      0.00   580.73     0  01:31           0        5.04      -0.372
  WS02006235           JUNCTION      0.00   597.51     0  01:28           0         5.2       0.065
  WS02006238           JUNCTION      0.00   428.04     0  03:18           0        4.04      -0.337
  WS02006239           JUNCTION      0.00   421.83     0  03:22           0         3.9      -0.411
  WS02006240           JUNCTION      0.00   418.38     0  03:22           0        3.85      -0.253
  WS02006242           JUNCTION      0.00   420.68     0  03:22           0        3.84      -0.064
  WS02006243           JUNCTION      0.00   425.01     0  01:34           0        3.84       0.050
  WS02006245           JUNCTION      0.00   468.61     0  01:36           0        3.87       0.783
  WS02006247           JUNCTION      0.00   482.79     0  01:36           0        3.87      -0.095
  WS02006248           JUNCTION      0.00   561.89     0  01:36           0        3.89       0.141
  WS02006249           JUNCTION      0.00   535.71     0  01:36           0        4.07       0.698
  WS02006251           JUNCTION      0.08   425.33     0  01:33     0.00219        4.07       0.013
  WS02006252           JUNCTION      0.00   400.00     0  00:00           0        4.06      -0.172
  WS02006256           JUNCTION      0.00   326.63     0  01:27           0         1.7     -12.759
  WSF200               JUNCTION      0.00   531.32     0  03:09           0        5.21       0.010
  YS02001580           JUNCTION      0.00   130.25     0  01:41           0     0.00428      -1.038
  YS02001583           JUNCTION      0.00   174.35     0  01:41           0      0.0153      -5.018
  YS02001586           JUNCTION    965.12   965.12     0  01:53        2.34        2.35       0.059
  YS02001590           JUNCTION      0.00   317.81     0  02:10           0        1.61      -0.029
  YS02001593           JUNCTION      0.00   317.86     0  02:02           0        1.61       0.014
  YS02001596           JUNCTION      0.00   317.92     0  02:22           0        1.61       0.005
  YS02001600           JUNCTION      0.00   317.87     0  02:15           0        1.61       0.017
  YS02001601           JUNCTION   1732.75  2050.17     0  01:51        3.17        4.78       0.020
  YS02001602           JUNCTION      0.00   523.58     0  01:40           0        2.67       0.019
  YS02001605           JUNCTION      0.00   523.21     0  01:40           0        2.54       0.022
  YS02001607           JUNCTION      0.00   524.02     0  01:40           0        2.54       0.080
  YS02001610           JUNCTION      0.00   946.85     0  01:54           0        3.07       0.083
  YS02001613           JUNCTION      0.00   610.30     0  01:54           0        2.47       0.067
  YS02001616           JUNCTION      0.00   610.40     0  01:54           0        2.47       0.022
  YS02001619           JUNCTION   1717.56  1717.56     0  01:52        3.76        5.69       0.000
  YS02001622           JUNCTION      0.00  1053.68     0  01:53           0        5.15       0.003
  YS02001625           JUNCTION      0.00  1498.41     0  01:54           0        5.46       0.169
  YS02001629           JUNCTION      0.00   954.82     0  02:20           0        4.36       0.015
  YS02001633           JUNCTION   1303.01  1383.10     0  01:43        2.33        6.25       0.057
  YS02001641           JUNCTION      0.00  1383.24     0  01:43           0        5.82       0.052
  YS02001644           JUNCTION   1165.15  1815.34     0  01:51        2.02        7.83       0.043
  YS02001647           JUNCTION      0.00  1807.78     0  01:43           0        6.97       0.007
  YS02001649           JUNCTION      0.00  2074.09     0  01:43           0        8.83       0.004
  YS02001652           JUNCTION      0.00  1160.82     0  01:49           0        1.86      -0.076
  YS02001655           JUNCTION      0.15  1160.54     0  01:49     0.00439        1.86       0.051
  YS02001658           JUNCTION      0.00  1160.10     0  01:49           0        1.86      -0.049
  YS02001661           JUNCTION      0.00  1159.25     0  01:49           0        1.86       0.001
  YS02001664           JUNCTION   1136.09  1136.09     0  01:50        1.86        1.86      -0.009
  YS02001745           JUNCTION    729.62   729.62     0  01:50        1.11        1.11       0.088
  YS02001748           JUNCTION      0.04   752.58     0  01:49     0.00128        1.12      -0.166
  YS02001751           JUNCTION      0.01   753.45     0  01:49    0.000313        1.12       0.040
  YS02001754           JUNCTION      0.26   753.69     0  01:49     0.00741        1.14      -0.082
  YS02001757           JUNCTION      0.00  3461.35     0  01:55           0        13.4       0.040
  YS02001759           JUNCTION   1012.72  1463.17     0  01:51        1.54        3.46      -0.002
  YS02001762           JUNCTION      0.00   828.96     0  01:59           0        1.92       0.010
  YS02001765           JUNCTION      0.00   828.77     0  01:59           0        1.92       0.007
  YS02001767           JUNCTION      0.54   828.44     0  01:59      0.0152        1.92       0.007
  YS02001770           JUNCTION   1418.12  1418.12     0  01:50        2.34        2.38      -0.003
  YS02001774           JUNCTION      0.00   849.64     0  01:51           0       0.477       0.261
  YS02001779           JUNCTION      0.01   849.94     0  01:51    0.000142       0.435      -0.086
  YS02001783           JUNCTION      0.00  1170.09     0  01:48           0        4.87       0.007
  YS02001784           JUNCTION      1.06  1171.05     0  01:48      0.0302         4.9       0.011
  YS02001786           JUNCTION      0.06  1171.34     0  01:47      0.0016         4.9       0.015
  YS02001788           JUNCTION      0.07  1171.98     0  01:48     0.00202         4.9       0.006
  YS02001790           JUNCTION      0.15  1183.51     0  01:47     0.00442         4.9      -0.002
  YS02001791           JUNCTION      0.00  1298.59     0  01:49           0         4.9      -0.001
  YS02001793           JUNCTION      0.00  1258.52     0  01:47           0         4.9      -0.001
  YS02001882           JUNCTION      0.00    64.18     0  01:42           0      0.0129       5.394
  YS02001884           JUNCTION      0.00    71.09     0  01:42           0      0.0486       5.449
  YS02001887           JUNCTION   1089.29  1089.31     0  01:50         1.6        1.63       0.275
  YS02001890           JUNCTION      0.00  1089.27     0  01:49           0        1.59       0.326
  YS02001895           JUNCTION      0.00   518.66     0  01:51           0        1.34       0.140
  YS02001898           JUNCTION      0.00   518.82     0  01:51           0        1.34       0.005
  YS02001901           JUNCTION      0.00   518.88     0  01:51           0        1.34       0.254
  YS02001904           JUNCTION      0.00   518.58     0  01:51           0        1.35       0.214
  YS02001907           JUNCTION      0.00  2671.37     0  01:51           0        4.89       0.370
  YS02001910           JUNCTION      0.00  1872.51     0  01:51           0        3.47       0.209
  YS02001915           JUNCTION   1259.80  1871.95     0  01:51        2.23        3.52       0.048
  YS02001918           JUNCTION      0.00   615.07     0  01:52           0        1.32       0.019
  YS02001920           JUNCTION      2.87   614.81     0  01:51      0.0818        1.31       0.079
  YS02001923           JUNCTION      0.04   611.49     0  01:52     0.00107        1.21      -0.060
  YS02001926           JUNCTION      0.05   611.16     0  01:52     0.00149        1.19       0.007
  YS02001929           JUNCTION    610.48   610.48     0  01:52        1.17        1.17      -0.019
  YS02006553           JUNCTION      0.00   793.38     0  02:14           0        2.73       0.442
  YS02006556           JUNCTION      0.00   792.72     0  02:14           0        2.74       0.299
  YS02006558           JUNCTION   1460.09  1460.09     0  01:50        2.35        4.98       0.069
  YS02006561           JUNCTION      0.00  1181.40     0  01:44           0        4.87       0.000
  YS02163301           JUNCTION      0.00   956.33     0  02:21           0        4.35       0.038
  YS02163601           JUNCTION      0.11  1383.07     0  01:43     0.00313        5.81       0.089
  YS02164001           JUNCTION      0.00  1382.91     0  01:43           0        5.81       0.043
  CC-1                 OUTFALL       0.00   683.00     0  00:00           0        5.79       0.000
  CC-2                 OUTFALL       0.00   683.00     0  00:00           0        5.79       0.000
  JK-1                 OUTFALL       0.00  1000.00     0  00:00           0        1.91       0.000
  JK-2                 OUTFALL       0.00  1000.00     0  00:00           0        1.91       0.000
  WSC                  OUTFALL       0.00   549.64     0  03:12           0        5.72       0.000
  CC-storage           STORAGE       0.00  3461.39     0  01:55           0        15.6      -0.320
  JK-storage           STORAGE       0.00  1297.57     0  01:47           0        5.06      -8.080
  
  
  **********************
  Node Surcharge Summary
  **********************
  
  Surcharging occurs when water rises above the top of the highest conduit.
  ---------------------------------------------------------------------
                                               Max. Height   Min. Depth
                                   Hours       Above Crown    Below Rim
  Node                 Type      Surcharged         Meters       Meters
  ---------------------------------------------------------------------
  WS02006109           JUNCTION        2.20          0.237        1.583
  WS02006110           JUNCTION        0.08          0.166        1.684
  WS02006112           JUNCTION        1.68          0.076        1.604
  WS02006228           JUNCTION        2.19          0.307        1.893
  WS02006229           JUNCTION        2.21          0.364        2.086
  WS02006230           JUNCTION        0.08          0.253        1.317
  WS02006231           JUNCTION        1.26          0.827        0.703
  WS02006232           JUNCTION        2.30          1.480        0.000
  WS02006234           JUNCTION        1.89          1.240        0.000
  WS02006235           JUNCTION        2.15          1.290        0.000
  WS02006238           JUNCTION        2.25          1.430        0.000
  WS02006239           JUNCTION        2.19          1.290        0.000
  WS02006240           JUNCTION        2.19          1.390        0.000
  WS02006242           JUNCTION        2.31          0.820        0.000
  WS02006243           JUNCTION        2.18          0.770        0.000
  WS02006245           JUNCTION        2.17          0.850        0.000
  WS02006247           JUNCTION        2.20          0.760        0.000
  WS02006248           JUNCTION        2.15          0.380        0.000
  WS02006249           JUNCTION        2.18          0.390        0.000
  WS02006251           JUNCTION        1.75          0.672        0.508
  WS02006252           JUNCTION        2.82          1.100        0.000
  WS02006256           JUNCTION        6.92          2.050        0.000
  YS02001580           JUNCTION        0.85          0.450        0.000
  YS02001583           JUNCTION        0.85          0.500        0.000
  YS02001586           JUNCTION        0.96          0.510        0.000
  YS02001590           JUNCTION        1.05          0.750        0.000
  YS02001593           JUNCTION        1.05          0.783        0.057
  YS02001596           JUNCTION        1.18          0.954        0.116
  YS02001600           JUNCTION        1.39          1.190        0.000
  YS02001601           JUNCTION        1.69          1.440        0.000
  YS02001602           JUNCTION        1.60          1.270        0.000
  YS02001605           JUNCTION        1.56          1.180        0.000
  YS02001607           JUNCTION        0.96          0.680        0.000
  YS02001610           JUNCTION        1.00          0.680        0.000
  YS02001613           JUNCTION        0.95          0.700        0.000
  YS02001616           JUNCTION        0.89          0.610        0.000
  YS02001619           JUNCTION        0.88          0.610        0.000
  YS02001622           JUNCTION        0.87          0.586        0.034
  YS02001625           JUNCTION        1.11          0.780        0.000
  YS02001629           JUNCTION        0.75          0.470        0.000
  YS02001633           JUNCTION        1.12          1.022        0.038
  YS02001641           JUNCTION        0.97          0.972        0.128
  YS02001644           JUNCTION        0.89          0.920        0.000
  YS02001647           JUNCTION        0.60          0.818        0.082
  YS02001649           JUNCTION        0.69          1.050        0.000
  YS02001652           JUNCTION        0.46          1.130        0.000
  YS02001655           JUNCTION        0.36          1.200        0.000
  YS02001658           JUNCTION        0.26          1.300        0.000
  YS02001661           JUNCTION        0.12          0.723        0.667
  YS02001745           JUNCTION        0.01          1.077        0.273
  YS02001748           JUNCTION        0.17          1.190        0.000
  YS02001751           JUNCTION        0.28          1.200        0.000
  YS02001754           JUNCTION        0.36          1.150        0.000
  YS02001757           JUNCTION        0.67          1.210        0.000
  YS02001759           JUNCTION        0.57          1.192        0.018
  YS02001762           JUNCTION        0.51          1.150        0.000
  YS02001765           JUNCTION        0.48          1.100        0.000
  YS02001767           JUNCTION        0.46          1.030        0.000
  YS02001770           JUNCTION        0.45          0.920        0.000
  YS02001774           JUNCTION        0.52          1.005        0.045
  YS02001779           JUNCTION        0.38          0.680        0.000
  YS02001783           JUNCTION        0.71          0.604        0.996
  YS02001784           JUNCTION        0.69          0.404        1.086
  YS02001786           JUNCTION        0.56          0.142        1.288
  YS02001882           JUNCTION        0.65          0.753        0.077
  YS02001884           JUNCTION        0.66          0.766        0.104
  YS02001887           JUNCTION        0.70          0.810        0.140
  YS02001890           JUNCTION        0.72          0.760        0.000
  YS02001895           JUNCTION        0.64          0.575        0.175
  YS02001898           JUNCTION        0.63          0.548        0.192
  YS02001901           JUNCTION        0.69          0.684        0.186
  YS02001904           JUNCTION        0.68          0.646        0.204
  YS02001907           JUNCTION        0.95          0.950        0.000
  YS02001910           JUNCTION        0.75          1.013        0.087
  YS02001915           JUNCTION        0.65          1.000        0.000
  YS02001918           JUNCTION        0.55          0.810        0.000
  YS02001920           JUNCTION        0.57          1.140        0.000
  YS02001923           JUNCTION        0.21          0.820        0.000
  YS02001926           JUNCTION        0.24          0.900        0.000
  YS02001929           JUNCTION        0.09          0.780        0.000
  YS02006553           JUNCTION        0.98          0.998        0.192
  YS02006556           JUNCTION        0.85          0.967        0.383
  YS02006558           JUNCTION        0.84          0.957        0.443
  YS02006561           JUNCTION        0.52          0.307        0.843
  YS02163301           JUNCTION        1.09          0.930        0.100
  YS02163601           JUNCTION        1.15          1.070        0.010
  YS02164001           JUNCTION        1.00          0.987        0.113
  
  
  *********************
  Node Flooding Summary
  *********************
  
  Flooding refers to all water that overflows a node, whether it ponds or not.
  --------------------------------------------------------------------------
                                                             Total   Maximum
                                 Maximum   Time of Max       Flood    Ponded
                        Hours       Rate    Occurrence      Volume     Depth
  Node                 Flooded       LPS   days hr:min    10^6 ltr    Meters
  --------------------------------------------------------------------------
  WS02006232              0.01      4.53      0  02:48       0.000     0.000
  WS02006234              0.01     34.68      0  02:52       0.000     0.000
  WS02006235              0.01     23.25      0  03:01       0.000     0.000
  WS02006238              0.01     22.37      0  03:16       0.000     0.000
  WS02006239              0.01     11.84      0  03:16       0.000     0.000
  WS02006240              0.01      1.89      0  02:48       0.000     0.000
  WS02006242              0.02     34.68      0  03:01       0.001     0.000
  WS02006243              0.01    113.43      0  01:34       0.000     0.000
  WS02006245              0.01    143.22      0  01:34       0.000     0.000
  WS02006247              0.01    141.94      0  01:39       0.000     0.000
  WS02006248              0.46    224.41      0  01:36       0.013     0.000
  WS02006249              1.57    182.88      0  01:36       0.150     0.000
  WS02006252              0.01    295.98      0  01:33       0.001     0.000
  WS02006256              1.55    317.84      0  01:27       0.755     0.000
  YS02001580              0.01    103.90      0  01:41       0.000     0.000
  YS02001583              0.01     75.03      0  01:41       0.000     0.000
  YS02001586              0.70    647.56      0  01:53       0.728     0.000
  YS02001590              0.01      6.86      0  01:41       0.000     0.000
  YS02001600              0.01      4.27      0  01:39       0.000     0.000
  YS02001601              0.85   1652.34      0  01:51       2.108     0.000
  YS02001602              0.65     62.02      0  02:07       0.133     0.000
  YS02001605              0.01      4.81      0  01:41       0.000     0.000
  YS02001607              0.01     13.78      0  01:41       0.000     0.000
  YS02001610              0.58    946.69      0  01:54       1.125     0.000
  YS02001613              0.01     13.80      0  01:41       0.000     0.000
  YS02001616              0.08     15.68      0  01:41       0.000     0.000
  YS02001619              0.09     63.15      0  01:52       0.012     0.000
  YS02001625              0.47   1498.32      0  01:54       1.514     0.000
  YS02001629              0.20    334.36      0  01:49       0.137     0.000
  YS02001644              0.25   1723.40      0  01:50       0.848     0.000
  YS02001649              0.01     30.87      0  01:46       0.000     0.000
  YS02001652              0.01     43.89      0  01:45       0.000     0.000
  YS02001655              0.01     89.69      0  01:45       0.000     0.000
  YS02001658              0.01    338.27      0  01:45       0.000     0.000
  YS02001748              0.01    232.17      0  01:46       0.000     0.000
  YS02001751              0.01     20.43      0  01:46       0.000     0.000
  YS02001754              0.01     12.90      0  01:46       0.000     0.000
  YS02001757              0.01     35.04      0  01:46       0.000     0.000
  YS02001762              0.01     10.69      0  01:46       0.000     0.000
  YS02001765              0.01     10.83      0  01:46       0.000     0.000
  YS02001767              0.01      4.68      0  01:46       0.000     0.000
  YS02001770              0.07    151.42      0  01:50       0.020     0.000
  YS02001779              0.23    849.80      0  01:51       0.417     0.000
  YS02001890              0.25    573.20      0  01:50       0.246     0.000
  YS02001907              0.49   2670.71      0  01:51       2.236     0.000
  YS02001915              0.01      9.71      0  01:48       0.000     0.000
  YS02001918              0.01    238.32      0  01:44       0.003     0.000
  YS02001920              0.01     47.52      0  01:44       0.000     0.000
  YS02001923              0.01    342.45      0  01:44       0.002     0.000
  YS02001926              0.01    370.40      0  01:44       0.001     0.000
  YS02001929              0.01    144.72      0  01:44       0.000     0.000
  
  
  **********************
  Storage Volume Summary
  **********************
  
  ------------------------------------------------------------------------------------------------
                         Average    Avg   Evap  Exfil     Maximum    Max    Time of Max    Maximum
                          Volume   Pcnt   Pcnt   Pcnt      Volume   Pcnt     Occurrence    Outflow
  Storage Unit           1000 m³   Full   Loss   Loss     1000 m³   Full    days hr:min        LPS
  ------------------------------------------------------------------------------------------------
  CC-storage               1.024   16.0    0.0    0.0       3.241   50.6       0  02:34    1783.53
  JK-storage               0.001    0.4    0.0    0.0       0.150   51.6       0  00:00    2300.00
  
  
  ***********************
  Outfall Loading Summary
  ***********************
  
  -----------------------------------------------------------
                         Flow       Avg       Max       Total
                         Freq      Flow      Flow      Volume
  Outfall Node           Pcnt       LPS       LPS    10^6 ltr
  -----------------------------------------------------------
  CC-1                  51.94    683.00    683.00       5.789
  CC-2                  51.94    683.00    683.00       5.789
  JK-1                  13.84    998.32   1000.00       1.915
  JK-2                  13.84    998.32   1000.00       1.915
  WSC                   99.95    284.74    549.64       5.722
  -----------------------------------------------------------
  System                46.30   3647.37   3897.50      21.130
  
  
  ********************
  Link Flow Summary
  ********************
  
  -----------------------------------------------------------------------------
                                 Maximum  Time of Max   Maximum    Max/    Max/
                                  |Flow|   Occurrence   |Veloc|    Full    Full
  Link                 Type          LPS  days hr:min     m/sec    Flow   Depth
  -----------------------------------------------------------------------------
  1                    CONDUIT    549.64     0  03:12      2.82    0.19    0.30
  WS02003060WS02003069 CONDUIT    548.04     0  03:09      1.64    0.21    0.34
  WS02003066WSF200     CONDUIT    531.32     0  03:09      2.85    0.09    0.22
  WS02003067WS02003066 CONDUIT    531.25     0  03:09      1.20    0.17    0.41
  WS02003069WS02003072 CONDUIT    548.26     0  03:10      1.37    0.26    0.39
  WS02003072WS02003073 CONDUIT    548.13     0  03:11      1.43    1.18    0.37
  WS02004401WS02004402 CONDUIT    535.68     0  03:05      1.22    0.64    0.88
  WS02004402WS02004403 CONDUIT    536.20     0  03:05      1.24    0.77    0.90
  WS02004403WS02004404 CONDUIT    548.73     0  03:06      1.24    0.40    0.95
  WS02004404WS02004405 CONDUIT    598.09     0  03:05      1.45    5.86    0.97
  WS02004405WS02004406 CONDUIT    538.89     0  03:06      1.46    1.06    0.96
  WS02004406WS02004407 CONDUIT    534.26     0  03:07      1.04    0.24    0.62
  WS02004407WS02004409 CONDUIT    533.94     0  03:07      1.59    0.19    0.48
  WS02004409WS02004410 CONDUIT    533.34     0  03:07      1.06    0.69    0.67
  WS02004410WS02004411 CONDUIT    532.44     0  03:08      1.12    0.73    0.68
  WS02004411WS02004412 CONDUIT    531.76     0  03:08      1.22    0.76    0.69
  WS02004412WS02004413 CONDUIT    531.50     0  03:08      1.22    0.36    0.77
  WS02004413WS02003067 CONDUIT    531.13     0  03:09      1.10    0.23    0.59
  WS02006109WS02006110 CONDUIT    559.71     0  01:32      1.11    1.08    1.00
  WS02006110WS02006113 CONDUIT    568.56     0  01:32      1.38    0.52    0.78
  WS02006111WS02006112 CONDUIT    543.00     0  03:02      1.95    0.26    0.67
  WS02006112WS02006115 CONDUIT    544.91     0  03:05      0.87    0.32    0.88
  WS02006113WS02006111 CONDUIT    560.76     0  03:04      2.46    0.67    0.46
  WS02006115WS02006116 CONDUIT    537.45     0  03:05      1.29    0.69    0.78
  WS02006116WS02004401 CONDUIT    535.47     0  03:04      1.21    0.74    0.86
  WS02006228WS02006109 CONDUIT    557.36     0  01:32      1.11    2.44    1.00
  WS02006229WS02006228 CONDUIT    555.32     0  01:32      1.12    1.84    1.00
  WS02006230WS02006229 CONDUIT    553.80     0  01:32      1.44   12.32    1.00
  WS02006231WS02006230 CONDUIT    573.77     0  03:01      1.53    8.70    1.00
  WS02006232WS02006231 CONDUIT    584.99     0  01:31      1.53    1.23    1.00
  WS02006234WS02006232 CONDUIT    584.30     0  01:31      1.52    1.18    1.00
  WS02006235WS02006234 CONDUIT    580.73     0  01:31      1.51    6.13    1.00
  WS02006238WS02006235 CONDUIT    447.71     0  03:16      1.45    1.00    1.00
  WS02006239WS02006238 CONDUIT    428.04     0  03:18      1.11    1.37    1.00
  WS02006240WS02006239 CONDUIT    421.83     0  03:22      1.24    1.33    1.00
  WS02006242WS02006240 CONDUIT    418.38     0  03:22      1.16    1.66    1.00
  WS02006243WS02006242 CONDUIT    420.68     0  03:22      1.41    0.90    1.00
  WS02006245WS02006243 CONDUIT    425.01     0  01:34      1.44    1.26    1.00
  WS02006247WS02006245 CONDUIT    468.61     0  01:36      1.43    3.72    1.00
  WS02006248WS02006247 CONDUIT    482.79     0  01:36      1.43    1.05    1.00
  WS02006249WS02006248 CONDUIT    561.89     0  01:36      1.47    3.08    1.00
  WS02006251WS02006249 CONDUIT    535.71     0  01:36      1.99    1.54    1.00
  WS02006252WS02006251 CONDUIT    408.70     0  01:35     19.19    1.50    1.00
  WS02006256WS02006235 CONDUIT    288.91     0  00:00      4.23    3.06    1.00
  WSF200WS02003060     CONDUIT    531.53     0  03:09      2.06    0.12    0.28
  YS02001580YS02001583 CONDUIT    130.25     0  01:41      0.69    0.50    1.00
  YS02001583YS02001586 CONDUIT    163.88     0  01:41      0.71    0.25    1.00
  YS02001586YS02001590 CONDUIT    317.81     0  02:10      1.28    0.56    1.00
  YS02001590YS02001593 CONDUIT    317.86     0  02:02      1.12    2.00    1.00
  YS02001593YS02001596 CONDUIT    317.92     0  02:22      1.76    0.50    1.00
  YS02001596YS02001600 CONDUIT    317.87     0  02:15      1.25    0.62    1.00
  YS02001600YS02001601 CONDUIT    317.82     0  02:22      1.12    0.55    1.00
  YS02001601YS02001602 CONDUIT    523.58     0  01:40      1.85    1.89    1.00
  YS02001602YS02001605 CONDUIT    523.21     0  01:40      1.85   11.07    1.00
  YS02001605YS02001607 CONDUIT    524.02     0  01:40      1.85    2.87    1.00
  YS02001607YS02001610 CONDUIT    531.37     0  01:40      0.68    0.51    1.00
  YS02001610YS02001613 CONDUIT    610.39     0  01:54      0.78    0.70    1.00
  YS02001613YS02001616 CONDUIT    610.30     0  01:54      0.78    0.52    1.00
  YS02001616YS02001619 CONDUIT    610.40     0  01:54      0.78    1.06    1.00
  YS02001619YS02001622 CONDUIT   1053.68     0  01:53      1.34    1.55    1.00
  YS02001622YS02001625 CONDUIT   1053.48     0  01:53      1.34    0.56    1.00
  YS02001625YS02001629 CONDUIT    954.82     0  02:20      1.22    0.45    1.00
  YS02001629YS02163301 CONDUIT    956.33     0  02:21      1.22    1.18    1.00
  YS02001633YS02163601 CONDUIT   1382.96     0  01:43      1.76    1.45    1.00
  YS02001641YS02001644 CONDUIT   1382.46     0  01:43      1.76    4.47    1.00
  YS02001644YS02001647 CONDUIT   1807.78     0  01:43      2.30    1.06    1.00
  YS02001647YS02001649 CONDUIT   1820.45     0  01:43      2.32    0.96    1.00
  YS02001649YS02001757 CONDUIT   2076.50     0  01:43      2.64    1.26    1.00
  YS02001652YS02001649 CONDUIT   1160.72     0  01:49      1.48    0.58    1.00
  YS02001655YS02001652 CONDUIT   1160.82     0  01:49      1.48    0.56    1.00
  YS02001658YS02001655 CONDUIT   1160.39     0  01:49      1.90    0.49    1.00
  YS02001661YS02001658 CONDUIT   1160.10     0  01:49      2.35    0.46    1.00
  YS02001664YS02001661 CONDUIT   1159.25     0  01:49      2.36    0.36    0.92
  YS02001745YS02001748 CONDUIT    752.53     0  01:49      2.24    0.29    1.00
  YS02001748YS02001751 CONDUIT    753.43     0  01:49      1.72    0.38    1.00
  YS02001751YS02001754 CONDUIT    753.43     0  01:49      1.41    0.36    1.00
  YS02001754YS02001757 CONDUIT    754.23     0  01:49      0.96    0.30    1.00
  YS02001757CaochengTiaoxuchi CONDUIT   3461.39     0  01:55      7.18    1.50    1.00
  YS02001759YS02001757 CONDUIT   1463.37     0  01:51      1.86    1.04    1.00
  YS02001762YS02001759 CONDUIT    828.68     0  01:59      1.06    0.95    1.00
  YS02001765YS02001762 CONDUIT    828.96     0  01:59      1.06    0.78    1.00
  YS02001767YS02001765 CONDUIT    828.77     0  01:59      1.06    1.04    1.00
  YS02001770YS02001767 CONDUIT    827.91     0  01:59      1.05    3.28    1.00
  YS02001774YS02001770 CONDUIT    849.64     0  01:51      1.08    0.54    1.00
  YS02001779YS02001774 CONDUIT    849.93     0  01:51      1.08    0.43    1.00
  YS02001783YS02001784 CONDUIT   1169.99     0  01:48      2.33    1.61    1.00
  YS02001784YS02001785 CONDUIT   1171.29     0  01:47      2.33    2.73    1.00
  YS02001786YS02001788 CONDUIT   1171.90     0  01:48      2.49    2.26    0.89
  YS02001788YS02001790 CONDUIT   1183.36     0  01:47      2.73    0.87    0.84
  YS02001790YS02001791 CONDUIT   1298.59     0  01:49      3.43    1.41    0.71
  YS02001791YS02001793 CONDUIT   1258.52     0  01:47      6.39    0.54    0.43
  YS02001793JiankangQianchi CONDUIT   1297.57     0  01:47     23.99    0.10    0.50
  YS02001882YS02001884 CONDUIT     64.18     0  01:42      0.17    0.07    1.00
  YS02001884YS02001887 CONDUIT     71.09     0  01:42      0.12    0.09    1.00
  YS02001887YS02001890 CONDUIT   1089.27     0  01:49      1.39    1.86    1.00
  YS02001890YS02001895 CONDUIT    518.66     0  01:51      0.66    0.24    1.00
  YS02001895YS02001898 CONDUIT    518.82     0  01:51      0.66    0.90    1.00
  YS02001898YS02001901 CONDUIT    518.88     0  01:51      0.66    0.33    1.00
  YS02001901YS02001904 CONDUIT    518.58     0  01:51      0.66    0.80    1.00
  YS02001904YS02001907 CONDUIT    518.76     0  01:51      0.66    0.18    1.00
  YS02001907YS02006553 CONDUIT    793.38     0  02:14      0.88    0.93    1.00
  YS02001910YS02001907 CONDUIT   1871.97     0  01:51      2.38    1.06    1.00
  YS02001915YS02001910 CONDUIT   1872.51     0  01:51      2.38    0.93    1.00
  YS02001918YS02001915 CONDUIT    614.81     0  01:51      0.78    0.34    1.00
  YS02001920YS02001918 CONDUIT    615.07     0  01:52      0.78    0.59    1.00
  YS02001923YS02001920 CONDUIT    611.94     0  01:51      0.78    0.27    1.00
  YS02001926YS02001923 CONDUIT    611.46     0  01:52      0.96    0.87    1.00
  YS02001929YS02001926 CONDUIT    611.10     0  01:52      1.13    0.29    1.00
  YS02006553YS02006556 CONDUIT    792.72     0  02:14      1.01    0.68    1.00
  YS02006556YS02006558 CONDUIT    793.53     0  02:14      1.01    0.63    1.00
  YS02006558YS02006561 CONDUIT   1181.40     0  01:44      4.18    2.61    1.00
  YS02006561YS02001783 CONDUIT   1170.09     0  01:48      2.33    0.61    1.00
  YS02163301YS02001633 CONDUIT    957.27     0  02:21      1.22    0.90    1.00
  YS02163601YS02164001 CONDUIT   1382.91     0  01:43      1.76    1.23    1.00
  YS02164001YS02001641 CONDUIT   1383.24     0  01:43      1.76    1.89    1.00
  CC-R1                PUMP       683.00     0  00:00              1.00
  CC-R2                PUMP       683.00     0  00:00              1.00
  CC-S1                PUMP       200.00     0  00:00              1.00
  CC-S2                PUMP       200.00     0  00:00              1.00
  JK-R1                PUMP      1000.00     0  00:00              1.00
  JK-R2                PUMP      1000.00     0  00:00              1.00
  JK-S                 PUMP       300.00     0  00:00              1.00
  
  
  ***************************
  Flow Classification Summary
  ***************************
  
  -------------------------------------------------------------------------------------
                      Adjusted    ---------- Fraction of Time in Flow Class ---------- 
                       /Actual         Up    Down  Sub   Sup   Up    Down  Norm  Inlet 
  Conduit               Length    Dry  Dry   Dry   Crit  Crit  Crit  Crit  Ltd   Ctrl  
  -------------------------------------------------------------------------------------
  1                       1.00   0.00  0.00  0.00  0.00  1.00  0.00  0.00  0.31  0.00
  WS02003060WS02003069    1.00   0.00  0.00  0.00  0.98  0.02  0.00  0.00  0.70  0.00
  WS02003066WSF200        1.00   0.05  0.00  0.00  0.00  0.95  0.00  0.00  0.87  0.00
  WS02003067WS02003066    1.00   0.05  0.00  0.00  0.95  0.00  0.00  0.00  0.00  0.00
  WS02003069WS02003072    1.00   0.00  0.00  0.00  0.99  0.01  0.00  0.00  0.71  0.00
  WS02003072WS02003073    1.00   0.00  0.00  0.00  0.00  0.00  0.00  1.00  0.00  0.00
  WS02004401WS02004402    1.00   0.02  0.00  0.00  0.98  0.00  0.00  0.00  0.00  0.00
  WS02004402WS02004403    1.00   0.02  0.00  0.00  0.98  0.00  0.00  0.00  0.00  0.00
  WS02004403WS02004404    1.00   0.00  0.03  0.00  0.97  0.00  0.00  0.00  0.00  0.00
  WS02004404WS02004405    1.00   0.00  0.00  0.00  1.00  0.00  0.00  0.00  0.01  0.00
  WS02004405WS02004406    1.00   0.00  0.00  0.00  1.00  0.00  0.00  0.00  0.00  0.00
  WS02004406WS02004407    1.00   0.00  0.03  0.00  0.97  0.00  0.00  0.00  0.00  0.00
  WS02004407WS02004409    1.00   0.03  0.00  0.00  0.95  0.01  0.00  0.00  0.95  0.00
  WS02004409WS02004410    1.00   0.03  0.00  0.00  0.96  0.00  0.00  0.00  0.00  0.00
  WS02004410WS02004411    1.00   0.04  0.00  0.00  0.96  0.00  0.00  0.00  0.00  0.00
  WS02004411WS02004412    1.00   0.04  0.00  0.00  0.96  0.00  0.00  0.00  0.00  0.00
  WS02004412WS02004413    1.00   0.04  0.00  0.00  0.96  0.00  0.00  0.00  0.00  0.00
  WS02004413WS02003067    1.00   0.04  0.01  0.00  0.00  0.00  0.95  0.00  0.00  0.00
  WS02006109WS02006110    1.00   0.00  0.01  0.00  0.98  0.00  0.01  0.00  0.00  0.00
  WS02006110WS02006113    1.00   0.01  0.01  0.00  0.98  0.00  0.00  0.00  0.00  0.00
  WS02006111WS02006112    1.00   0.02  0.00  0.00  0.98  0.00  0.00  0.00  0.98  0.00
  WS02006112WS02006115    1.00   0.02  0.00  0.00  0.97  0.00  0.00  0.00  0.00  0.00
  WS02006113WS02006111    1.00   0.02  0.00  0.00  0.00  0.98  0.00  0.00  0.14  0.00
  WS02006115WS02006116    1.00   0.02  0.00  0.00  0.97  0.00  0.00  0.01  0.00  0.00
  WS02006116WS02004401    1.00   0.02  0.00  0.00  0.98  0.00  0.00  0.00  0.00  0.00
  WS02006228WS02006109    1.00   0.00  0.00  0.00  1.00  0.00  0.00  0.00  0.00  0.00
  WS02006229WS02006228    1.00   0.00  0.00  0.00  0.99  0.00  0.00  0.01  0.00  0.00
  WS02006230WS02006229    1.00   0.00  0.00  0.00  0.99  0.00  0.00  0.01  0.03  0.00
  WS02006231WS02006230    1.00   0.00  0.00  0.00  0.30  0.00  0.70  0.00  0.00  0.00
  WS02006232WS02006231    1.00   0.00  0.00  0.00  0.99  0.00  0.01  0.00  0.00  0.00
  WS02006234WS02006232    1.00   0.00  0.00  0.00  1.00  0.00  0.00  0.00  0.01  0.00
  WS02006235WS02006234    1.00   0.00  0.00  0.00  0.95  0.00  0.05  0.00  0.00  0.00
  WS02006238WS02006235    1.00   0.00  0.00  0.00  1.00  0.00  0.00  0.00  0.01  0.00
  WS02006239WS02006238    1.00   0.00  0.00  0.00  1.00  0.00  0.00  0.00  0.06  0.00
  WS02006240WS02006239    1.00   0.00  0.00  0.00  0.92  0.00  0.00  0.08  0.22  0.00
  WS02006242WS02006240    1.00   0.00  0.00  0.00  0.95  0.00  0.04  0.00  0.00  0.00
  WS02006243WS02006242    1.00   0.00  0.00  0.00  0.98  0.00  0.00  0.02  0.55  0.00
  WS02006245WS02006243    1.00   0.00  0.00  0.00  0.73  0.00  0.00  0.27  0.01  0.00
  WS02006247WS02006245    1.00   0.00  0.00  0.00  0.98  0.00  0.00  0.02  0.00  0.00
  WS02006248WS02006247    1.00   0.00  0.00  0.00  0.98  0.00  0.00  0.02  0.34  0.00
  WS02006249WS02006248    1.00   0.00  0.00  0.00  0.47  0.00  0.53  0.00  0.00  0.00
  WS02006251WS02006249    1.00   0.00  0.00  0.00  0.99  0.01  0.00  0.00  0.55  0.00
  WS02006252WS02006251    1.00   0.00  0.56  0.00  0.22  0.00  0.22  0.00  0.00  0.00
  WS02006256WS02006235    1.00   0.00  0.00  0.00  0.96  0.04  0.00  0.00  0.01  0.00
  WSF200WS02003060        1.00   0.00  0.05  0.00  0.23  0.72  0.00  0.00  0.63  0.00
  YS02001580YS02001583    1.00   0.21  0.57  0.00  0.22  0.00  0.00  0.00  0.66  0.00
  YS02001583YS02001586    1.00   0.40  0.31  0.00  0.28  0.00  0.00  0.00  0.66  0.00
  YS02001586YS02001590    1.00   0.13  0.00  0.00  0.45  0.04  0.00  0.38  0.35  0.00
  YS02001590YS02001593    1.00   0.13  0.01  0.00  0.15  0.00  0.72  0.00  0.00  0.00
  YS02001593YS02001596    1.00   0.13  0.00  0.00  0.17  0.01  0.00  0.68  0.03  0.00
  YS02001596YS02001600    1.00   0.14  0.00  0.00  0.23  0.01  0.00  0.62  0.04  0.00
  YS02001600YS02001601    1.00   0.13  0.01  0.00  0.86  0.00  0.00  0.00  0.58  0.00
  YS02001601YS02001602    1.00   0.13  0.01  0.00  0.87  0.00  0.00  0.00  0.00  0.00
  YS02001602YS02001605    1.00   0.13  0.00  0.00  0.87  0.00  0.00  0.00  0.00  0.00
  YS02001605YS02001607    1.00   0.14  0.00  0.00  0.86  0.00  0.00  0.00  0.00  0.00
  YS02001607YS02001610    1.00   0.13  0.01  0.00  0.86  0.00  0.00  0.00  0.01  0.00
  YS02001610YS02001613    1.00   0.13  0.00  0.00  0.87  0.00  0.00  0.00  0.00  0.00
  YS02001613YS02001616    1.00   0.13  0.00  0.00  0.87  0.00  0.00  0.00  0.00  0.00
  YS02001616YS02001619    1.00   0.13  0.00  0.00  0.87  0.00  0.00  0.00  0.00  0.00
  YS02001619YS02001622    1.00   0.13  0.00  0.00  0.87  0.00  0.00  0.00  0.27  0.00
  YS02001622YS02001625    1.00   0.13  0.00  0.00  0.87  0.00  0.00  0.00  0.03  0.00
  YS02001625YS02001629    1.00   0.13  0.04  0.00  0.20  0.00  0.64  0.00  0.00  0.00
  YS02001629YS02163301    1.00   0.15  0.01  0.00  0.84  0.00  0.00  0.00  0.00  0.00
  YS02001633YS02163601    1.00   0.00  0.01  0.00  0.99  0.00  0.00  0.00  0.14  0.00
  YS02001641YS02001644    1.00   0.00  0.01  0.00  0.99  0.00  0.00  0.00  0.00  0.00
  YS02001644YS02001647    1.00   0.00  0.16  0.00  0.84  0.00  0.00  0.00  0.00  0.00
  YS02001647YS02001649    1.00   0.00  0.16  0.00  0.51  0.33  0.00  0.00  0.55  0.00
  YS02001649YS02001757    1.00   0.00  0.00  0.00  0.85  0.15  0.00  0.00  0.74  0.00
  YS02001652YS02001649    1.00   0.00  0.00  0.00  0.97  0.03  0.00  0.00  0.71  0.00
  YS02001655YS02001652    1.00   0.00  0.00  0.00  0.22  0.01  0.00  0.77  0.09  0.00
  YS02001658YS02001655    1.00   0.00  0.14  0.00  0.63  0.23  0.00  0.00  0.70  0.00
  YS02001661YS02001658    1.00   0.14  0.00  0.00  0.46  0.40  0.00  0.00  0.72  0.00
  YS02001664YS02001661    1.00   0.13  0.00  0.00  0.71  0.17  0.00  0.00  0.84  0.00
  YS02001745YS02001748    1.00   0.00  0.00  0.00  0.06  0.02  0.00  0.92  0.04  0.00
  YS02001748YS02001751    1.00   0.00  0.00  0.00  0.78  0.22  0.00  0.00  0.82  0.00
  YS02001751YS02001754    1.00   0.00  0.00  0.00  0.15  0.01  0.00  0.84  0.05  0.00
  YS02001754YS02001757    1.00   0.00  0.00  0.00  1.00  0.00  0.00  0.00  0.81  0.00
  YS02001757CaochengTiaoxuchi    1.00   0.00  0.00  0.00  0.20  0.80  0.00  0.00  0.12  0.00
  YS02001759YS02001757    1.00   0.00  0.00  0.00  1.00  0.00  0.00  0.00  0.62  0.00
  YS02001762YS02001759    1.00   0.00  0.00  0.00  1.00  0.00  0.00  0.00  0.04  0.00
  YS02001765YS02001762    1.00   0.00  0.00  0.00  1.00  0.00  0.00  0.00  0.71  0.00
  YS02001767YS02001765    1.00   0.00  0.00  0.00  1.00  0.00  0.00  0.00  0.00  0.00
  YS02001770YS02001767    1.00   0.00  0.00  0.00  1.00  0.00  0.00  0.00  0.00  0.00
  YS02001774YS02001770    1.00   0.00  0.13  0.00  0.71  0.00  0.15  0.00  0.02  0.00
  YS02001779YS02001774    1.00   0.00  0.00  0.00  1.00  0.00  0.00  0.00  0.76  0.00
  YS02001783YS02001784    1.00   0.00  0.17  0.00  0.83  0.00  0.00  0.00  0.54  0.00
  YS02001784YS02001785    1.00   0.00  0.00  0.00  1.00  0.00  0.00  0.00  0.16  0.00
  YS02001786YS02001788    1.00   0.00  0.00  0.00  0.79  0.21  0.00  0.00  0.00  0.00
  YS02001788YS02001790    1.00   0.00  0.00  0.00  0.22  0.78  0.00  0.00  0.78  0.00
  YS02001790YS02001791    1.00   0.00  0.00  0.00  0.01  0.99  0.00  0.00  0.16  0.00
  YS02001791YS02001793    1.00   0.00  0.00  0.00  0.00  1.00  0.00  0.00  0.01  0.00
  YS02001793JiankangQianchi    1.00   0.00  0.00  0.00  0.00  1.00  0.00  0.00  0.20  0.00
  YS02001882YS02001884    1.00   0.15  0.01  0.00  0.85  0.00  0.00  0.00  0.00  0.00
  YS02001884YS02001887    1.00   0.06  0.05  0.00  0.89  0.00  0.00  0.00  0.00  0.00
  YS02001887YS02001890    1.00   0.00  0.00  0.00  0.97  0.00  0.03  0.00  0.00  0.00
  YS02001890YS02001895    1.00   0.00  0.15  0.00  0.84  0.00  0.00  0.00  0.00  0.00
  YS02001895YS02001898    1.00   0.16  0.00  0.00  0.83  0.00  0.01  0.00  0.00  0.00
  YS02001898YS02001901    1.00   0.16  0.00  0.00  0.84  0.00  0.00  0.00  0.01  0.00
  YS02001901YS02001904    1.00   0.16  0.00  0.00  0.84  0.00  0.00  0.00  0.00  0.00
  YS02001904YS02001907    1.00   0.00  0.16  0.00  0.84  0.00  0.00  0.00  0.00  0.00
  YS02001907YS02006553    1.00   0.00  0.02  0.00  0.98  0.00  0.00  0.00  0.00  0.00
  YS02001910YS02001907    1.00   0.00  0.00  0.00  0.97  0.00  0.00  0.03  0.12  0.00
  YS02001915YS02001910    1.00   0.00  0.00  0.00  0.97  0.03  0.00  0.00  0.13  0.00
  YS02001918YS02001915    1.00   0.00  0.01  0.00  0.98  0.02  0.00  0.00  0.71  0.00
  YS02001920YS02001918    1.00   0.00  0.01  0.00  0.99  0.00  0.00  0.00  0.00  0.00
  YS02001923YS02001920    1.00   0.00  0.00  0.00  1.00  0.00  0.00  0.00  0.90  0.00
  YS02001926YS02001923    1.00   0.00  0.07  0.00  0.08  0.00  0.84  0.00  0.00  0.00
  YS02001929YS02001926    1.00   0.00  0.13  0.00  0.87  0.00  0.00  0.00  0.80  0.00
  YS02006553YS02006556    1.00   0.01  0.00  0.00  0.99  0.00  0.00  0.00  0.03  0.00
  YS02006556YS02006558    1.00   0.00  0.00  0.00  1.00  0.00  0.00  0.00  0.00  0.00
  YS02006558YS02006561    1.00   0.17  0.00  0.00  0.08  0.75  0.00  0.00  0.17  0.00
  YS02006561YS02001783    1.00   0.17  0.00  0.00  0.11  0.72  0.00  0.00  0.66  0.00
  YS02163301YS02001633    1.00   0.00  0.15  0.00  0.85  0.00  0.00  0.00  0.00  0.00
  YS02163601YS02164001    1.00   0.00  0.08  0.00  0.92  0.00  0.00  0.00  0.00  0.00
  YS02164001YS02001641    1.00   0.01  0.08  0.00  0.92  0.00  0.00  0.00  0.05  0.00
  
  
  *************************
  Conduit Surcharge Summary
  *************************
  
  ----------------------------------------------------------------------------
                                                           Hours        Hours 
                         --------- Hours Full --------   Above Full   Capacity
  Conduit                Both Ends  Upstream  Dnstream   Normal Flow   Limited
  ----------------------------------------------------------------------------
  WS02003072WS02003073        0.01      0.01      0.01      1.90         0.01
  WS02004404WS02004405        0.01      0.01      0.01      3.33         0.01
  WS02004405WS02004406        0.01      0.01      0.01      0.98         0.01
  WS02006109WS02006110        0.08      0.08      2.27      0.14         0.01
  WS02006110WS02006113        0.01      0.01      2.26      0.01         0.01
  WS02006111WS02006112        0.01      0.01      2.38      0.01         0.01
  WS02006112WS02006115        0.01      0.01      1.68      0.01         0.01
  WS02006228WS02006109        2.20      2.27      2.20      2.63         2.20
  WS02006229WS02006228        2.19      2.21      2.19      2.46         2.18
  WS02006230WS02006229        2.33      2.38      2.33      4.34         2.33
  WS02006231WS02006230        0.07      0.07      1.57      3.63         0.01
  WS02006232WS02006231        1.22      1.22      2.30      1.50         0.01
  WS02006234WS02006232        2.14      2.14      2.30      0.94         0.90
  WS02006235WS02006234        1.83      1.87      2.13      3.32         0.29
  WS02006238WS02006235        2.20      2.21      2.32      0.01         0.08
  WS02006239WS02006238        2.24      2.30      2.25      2.33         1.43
  WS02006240WS02006239        2.18      2.22      2.19      2.34         1.42
  WS02006242WS02006240        2.19      2.19      2.35      2.55         0.02
  WS02006243WS02006242        2.21      2.21      2.31      0.01         0.41
  WS02006245WS02006243        2.17      2.19      2.18      2.35         1.35
  WS02006247WS02006245        2.17      2.22      2.17      2.85         1.90
  WS02006248WS02006247        2.17      2.18      2.20      0.01         0.71
  WS02006249WS02006248        2.15      2.15      2.18      2.78         0.01
  WS02006251WS02006249        2.17      2.20      2.18      2.67         1.96
  WS02006252WS02006251        2.82      2.82      2.82      2.82         0.01
  WS02006256WS02006235        2.49      3.37      5.85      1.88         0.08
  YS02001580YS02001583        0.85      0.85      0.86      0.01         0.01
  YS02001583YS02001586        0.85      0.85      0.96      0.01         0.01
  YS02001586YS02001590        0.97      0.97      1.05      0.01         0.01
  YS02001590YS02001593        1.05      1.05      1.07      1.17         0.01
  YS02001593YS02001596        1.06      1.06      1.18      0.01         0.01
  YS02001596YS02001600        1.24      1.24      1.39      0.01         0.01
  YS02001600YS02001601        1.47      1.47      1.69      0.01         0.01
  YS02001601YS02001602        1.60      1.60      1.72      1.44         0.01
  YS02001602YS02001605        1.56      1.56      1.60      2.42         0.01
  YS02001605YS02001607        1.53      1.56      1.53      1.66         1.53
  YS02001607YS02001610        0.96      0.96      1.00      0.01         0.01
  YS02001610YS02001613        0.95      0.95      1.00      0.01         0.01
  YS02001613YS02001616        0.89      0.89      0.95      0.01         0.01
  YS02001616YS02001619        0.88      0.88      0.89      0.08         0.08
  YS02001619YS02001622        0.87      0.88      0.87      1.10         0.85
  YS02001622YS02001625        0.87      0.87      1.11      0.01         0.01
  YS02001625YS02001629        0.75      0.75      1.11      0.01         0.01
  YS02001629YS02163301        1.08      1.08      1.09      0.48         0.45
  YS02001633YS02163601        1.12      1.12      1.15      0.64         0.63
  YS02001641YS02001644        0.89      0.97      0.89      1.74         0.89
  YS02001644YS02001647        0.60      0.60      0.89      0.04         0.01
  YS02001647YS02001649        0.60      0.60      0.69      0.01         0.01
  YS02001649YS02001757        0.67      0.69      0.67      0.49         0.44
  YS02001652YS02001649        0.48      0.48      0.69      0.01         0.01
  YS02001655YS02001652        0.36      0.36      0.46      0.01         0.01
  YS02001658YS02001655        0.26      0.26      0.36      0.01         0.01
  YS02001661YS02001658        0.12      0.12      0.26      0.01         0.01
  YS02001664YS02001661        0.01      0.01      0.16      0.01         0.01
  YS02001745YS02001748        0.01      0.01      0.17      0.01         0.01
  YS02001748YS02001751        0.23      0.23      0.28      0.01         0.01
  YS02001751YS02001754        0.28      0.28      0.36      0.01         0.01
  YS02001754YS02001757        0.38      0.38      0.67      0.01         0.01
  YS02001757CaochengTiaoxuchi        0.14      0.67      0.68      0.65         0.08
  YS02001759YS02001757        0.57      0.57      0.67      0.09         0.10
  YS02001762YS02001759        0.51      0.51      0.57      0.01         0.03
  YS02001765YS02001762        0.48      0.48      0.51      0.01         0.01
  YS02001767YS02001765        0.46      0.46      0.48      0.02         0.06
  YS02001770YS02001767        0.46      0.47      0.46      0.75         0.45
  YS02001774YS02001770        0.45      0.45      0.52      0.01         0.01
  YS02001779YS02001774        0.38      0.38      0.52      0.01         0.01
  YS02001783YS02001784        0.69      0.71      0.69      0.89         0.69
  YS02001784YS02001785        0.56      0.69      0.56      1.20         0.56
  YS02001786YS02001788        0.01      0.56      0.01      1.01         0.01
  YS02001790YS02001791        0.01      0.01      0.01      0.67         0.01
  YS02001882YS02001884        0.65      0.65      0.66      0.01         0.01
  YS02001884YS02001887        0.69      0.69      0.70      0.01         0.01
  YS02001887YS02001890        0.72      0.72      0.73      0.20         0.01
  YS02001890YS02001895        0.64      0.64      0.75      0.01         0.01
  YS02001895YS02001898        0.63      0.63      0.64      0.01         0.01
  YS02001898YS02001901        0.64      0.64      0.69      0.01         0.01
  YS02001901YS02001904        0.68      0.68      0.69      0.01         0.01
  YS02001904YS02001907        0.68      0.68      0.99      0.01         0.01
  YS02001907YS02006553        1.21      1.21      1.30      0.01         0.01
  YS02001910YS02001907        0.75      0.75      0.95      0.06         0.07
  YS02001915YS02001910        0.65      0.65      0.75      0.01         0.01
  YS02001918YS02001915        0.55      0.55      0.65      0.01         0.01
  YS02001920YS02001918        0.55      0.55      0.57      0.01         0.01
  YS02001923YS02001920        0.50      0.50      0.57      0.01         0.01
  YS02001926YS02001923        0.21      0.21      0.24      0.01         0.01
  YS02001929YS02001926        0.09      0.09      0.24      0.01         0.01
  YS02006553YS02006556        0.85      0.85      0.98      0.01         0.01
  YS02006556YS02006558        0.92      0.92      1.01      0.01         0.01
  YS02006558YS02006561        0.59      0.84      0.59      1.14         0.59
  YS02006561YS02001783        0.52      0.52      0.71      0.01         0.01
  YS02163301YS02001633        1.09      1.09      1.14      0.01         0.02
  YS02163601YS02164001        1.00      1.00      1.15      0.38         0.01
  YS02164001YS02001641        0.97      1.00      0.97      0.95         0.74
  
  
  ***************
  Pumping Summary
  ***************
  
  ---------------------------------------------------------------------------------------------------------
                                                  Min       Avg       Max     Total     Power    % Time Off
                        Percent   Number of      Flow      Flow      Flow    Volume     Usage    Pump Curve
  Pump                 Utilized   Start-Ups       LPS       LPS       LPS  10^6 ltr     Kw-hr    Low   High
  ---------------------------------------------------------------------------------------------------------
  CC-R1                   29.73           5      0.00    683.00    683.00     5.788     97.11    0.0   71.2
  CC-R2                   29.73           5      0.00    683.00    683.00     5.788     97.11    0.0   71.2
  CC-S1                   35.60          13      0.00    200.00    200.00     2.029     15.58    0.0   36.5
  CC-S2                   35.60          13      0.00    200.00    200.00     2.029     15.58    0.0   36.5
  JK-R1                    6.83         526      0.00    998.32   1000.00     1.942      4.67    0.0    0.0
  JK-R2                    6.83         526      0.00    998.32   1000.00     1.942      4.67    0.0    0.0
  JK-S                    20.25         753      0.00    296.98    300.00     1.680     38.53    0.0    0.0
  

  Analysis begun on:  Thu Jan 16 14:22:21 2025
  Analysis ended on:  Thu Jan 16 14:22:23 2025
  Total elapsed time: 00:00:02