
  EPA STORM WATER MANAGEMENT MODEL - VERSION 5.2 (Build 5.2.4)
  PYSWMM TOOLKIT API - VERSION v1.0 (2023-11-27)
  ------------------------------------------------------------

  WARNING 04: minimum elevation drop used for Conduit WS02004404WS02004405
  WARNING 03: negative offset ignored for Link YS02001904YS02001907
  
  ****************
  Analysis Options
  ****************
  Flow Units ............... LPS
  Process Models:
    Rainfall/Runoff ........ YES
    RDII ................... NO
    Snowmelt ............... NO
    Groundwater ............ NO
    Flow Routing ........... YES
    Ponding Allowed ........ NO
    Water Quality .......... NO
  Infiltration Method ...... HORTON
  Flow Routing Method ...... DYNWAVE
  Surcharge Method ......... EXTRAN
  Starting Date ............ 08/28/2015 08:00:00
  Ending Date .............. 08/28/2015 16:00:00
  Antecedent Dry Days ...... 8.0
  Report Time Step ......... 00:01:00
  Wet Time Step ............ 00:01:00
  Dry Time Step ............ 00:01:00
  Routing Time Step ........ 30.00 sec
  Variable Time Step ....... YES
  Maximum Trials ........... 8
  Number of Threads ........ 4
  Head Tolerance ........... 0.001500 m
  
  
  **************************        Volume         Depth
  Runoff Quantity Continuity     hectare-m            mm
  **************************     ---------       -------
  Total Precipitation ......         1.708        51.486
  Evaporation Loss .........         0.000         0.000
  Infiltration Loss ........         0.096         2.894
  Surface Runoff ...........         1.579        47.610
  Final Storage ............         0.033         0.995
  Continuity Error (%) .....        -0.024
  
  
  **************************        Volume        Volume
  Flow Routing Continuity        hectare-m      10^6 ltr
  **************************     ---------     ---------
  Dry Weather Inflow .......         0.025         0.248
  Wet Weather Inflow .......         1.579        15.789
  Groundwater Inflow .......         0.000         0.000
  RDII Inflow ..............         0.000         0.000
  External Inflow ..........         0.083         0.825
  External Outflow .........         1.564        15.644
  Flooding Loss ............         0.385         3.851
  Evaporation Loss .........         0.000         0.000
  Exfiltration Loss ........         0.000         0.000
  Initial Stored Volume ....         0.243         2.431
  Final Stored Volume ......         0.039         0.393
  Continuity Error (%) .....        -3.082
  
  
  *************************
  Highest Continuity Errors
  *************************
  Node WS02006256 (-15.97%)
  Node JK-storage (-8.92%)
  Node YS02001583 (-6.73%)
  Node YS02001884 (5.27%)
  Node YS02001774 (1.07%)
  
  
  ***************************
  Time-Step Critical Elements
  ***************************
  Link WS02006238WS02006235 (42.11%)
  Link YS02001793JiankangQianchi (26.86%)
  Link WS02004404WS02004405 (7.18%)
  Link WS02003066WSF200 (6.61%)
  Link WS02006235WS02006234 (1.96%)
  
  
  ********************************
  Highest Flow Instability Indexes
  ********************************
  Link WS02006256WS02006235 (42)
  Link WS02006229WS02006228 (38)
  Link WS02006113WS02006111 (38)
  Link WS02006252WS02006251 (34)
  Link WS02006235WS02006234 (30)
  
  
  *********************************
  Most Frequent Nonconverging Nodes
  *********************************
  Node CC-1 (45.05%)
  Node CC-2 (45.05%)
  Node JK-1 (45.05%)
  Node JK-2 (45.05%)
  Node WSC (45.05%)
  
  
  *************************
  Routing Time Step Summary
  *************************
  Minimum Time Step           :     0.00 sec
  Average Time Step           :     2.65 sec
  Maximum Time Step           :     6.43 sec
  % of Time in Steady State   :     0.00
  Average Iterations per Step :     5.27
  % of Steps Not Converging   :    45.05
  Time Step Frequencies       :
     30.000 - 13.228 sec      :     0.00 %
     13.228 -  5.833 sec      :     5.69 %
      5.833 -  2.572 sec      :    37.49 %
      2.572 -  1.134 sec      :    42.00 %
      1.134 -  0.500 sec      :    14.82 %
  
  
  ***************************
  Subcatchment Runoff Summary
  ***************************
  
  ------------------------------------------------------------------------------------------------------------------------------
                            Total      Total      Total      Total     Imperv       Perv      Total       Total     Peak  Runoff
                           Precip      Runon       Evap      Infil     Runoff     Runoff     Runoff      Runoff   Runoff   Coeff
  Subcatchment                 mm         mm         mm         mm         mm         mm         mm    10^6 ltr      LPS
  ------------------------------------------------------------------------------------------------------------------------------
  sub60                     51.49       0.00       0.00       1.75      44.10       4.43      48.53        0.64   457.35   0.943
  sub61                     51.49       0.00       0.00       2.53      41.60       6.22      47.82        0.88   632.47   0.929
  sub62                     51.49       0.00       0.00       1.17      46.08       2.95      49.03        1.34   882.76   0.952
  sub63                     51.49       0.00       0.00       4.67      35.58      10.26      45.85        1.04   696.57   0.890
  sub64                     51.49       0.00       0.00       2.36      42.56       5.36      47.92        1.15   707.36   0.931
  sub65                     51.49       0.00       0.00       2.04      43.54       4.65      48.19        1.33   789.13   0.936
  sub66                     51.49       0.00       0.00       5.76      35.48       9.17      44.65        2.08  1001.09   0.867
  sub67                     51.49       0.00       0.00       1.13      46.12       2.99      49.12        0.91   692.25   0.954
  sub68                     51.49       0.00       0.00       2.10      43.09       5.11      48.20        1.33   907.60   0.936
  sub69                     51.49       0.00       0.00       1.85      43.65       5.87      49.52        1.83  1053.15   0.962
  sub70                     51.49       0.00       0.00       6.15      33.82      11.36      45.17        1.30   561.92   0.877
  sub71                     51.49       0.00       0.00       1.20      46.04       2.92      48.96        1.28   767.80   0.951
  sub72                     51.49       0.00       0.00       1.06      46.48       2.54      49.02        0.67   366.35   0.952
  
  
  ******************
  Node Depth Summary
  ******************
  
  ---------------------------------------------------------------------------------
                                 Average  Maximum  Maximum  Time of Max    Reported
                                   Depth    Depth      HGL   Occurrence   Max Depth
  Node                 Type       Meters   Meters   Meters  days hr:min      Meters
  ---------------------------------------------------------------------------------
  WS02003060           JUNCTION     0.23     0.38     5.31     0  02:56        0.38
  WS02003066           JUNCTION     0.19     0.30     5.85     0  02:55        0.30
  WS02003067           JUNCTION     0.49     0.70     6.02     0  02:55        0.70
  WS02003069           JUNCTION     0.26     0.43     5.01     0  02:56        0.43
  WS02003072           JUNCTION     0.32     0.50     4.87     0  02:57        0.50
  WS02003073           JUNCTION     0.18     0.30     4.36     0  02:57        0.30
  WS02004401           JUNCTION     0.59     0.87     6.87     0  02:51        0.87
  WS02004402           JUNCTION     0.62     0.90     6.86     0  02:53        0.90
  WS02004403           JUNCTION     0.64     0.91     6.84     0  02:52        0.91
  WS02004404           JUNCTION     0.72     1.01     6.86     0  02:56        0.99
  WS02004405           JUNCTION     0.71     0.96     6.81     0  02:53        0.96
  WS02004406           JUNCTION     0.72     0.96     6.79     0  02:53        0.95
  WS02004407           JUNCTION     0.17     0.29     6.61     0  02:53        0.29
  WS02004409           JUNCTION     0.39     0.66     6.43     0  02:54        0.66
  WS02004410           JUNCTION     0.41     0.68     6.40     0  02:54        0.68
  WS02004411           JUNCTION     0.43     0.69     6.37     0  02:54        0.69
  WS02004412           JUNCTION     0.45     0.69     6.33     0  02:55        0.69
  WS02004413           JUNCTION     0.61     0.85     6.32     0  02:55        0.85
  WS02006109           JUNCTION     0.66     1.03     7.65     0  02:48        0.99
  WS02006110           JUNCTION     0.66     0.98     7.56     0  02:48        0.96
  WS02006111           JUNCTION     0.18     0.29     6.99     0  02:49        0.29
  WS02006112           JUNCTION     0.75     1.08     6.96     0  02:57        1.06
  WS02006113           JUNCTION     0.28     0.46     7.35     0  02:52        0.45
  WS02006115           JUNCTION     0.48     0.77     6.91     0  02:52        0.77
  WS02006116           JUNCTION     0.57     0.85     6.89     0  02:52        0.85
  WS02006228           JUNCTION     0.66     1.07     7.72     0  02:48        1.02
  WS02006229           JUNCTION     0.64     1.07     7.77     0  02:56        1.03
  WS02006230           JUNCTION     0.65     1.18     7.93     0  02:56        1.13
  WS02006231           JUNCTION     0.45     2.24     9.36     0  03:07        2.24
  WS02006232           JUNCTION     0.59     2.18     9.22     0  02:10        2.18
  WS02006234           JUNCTION     0.53     1.96     9.12     0  02:10        1.96
  WS02006235           JUNCTION     0.57     2.00     9.16     0  01:53        2.00
  WS02006238           JUNCTION     0.60     2.15     9.29     0  01:53        2.15
  WS02006239           JUNCTION     0.57     2.03     9.24     0  02:10        2.03
  WS02006240           JUNCTION     0.53     2.10     9.39     0  02:10        2.10
  WS02006242           JUNCTION     0.59     1.55     8.82     0  01:45        1.55
  WS02006243           JUNCTION     0.51     1.48     8.90     0  01:50        1.48
  WS02006245           JUNCTION     0.51     1.56     9.04     0  01:50        1.56
  WS02006247           JUNCTION     0.53     1.47     8.97     0  01:55        1.47
  WS02006248           JUNCTION     0.50     1.10     8.69     0  01:45        1.10
  WS02006249           JUNCTION     0.52     1.09     8.69     0  01:49        1.09
  WS02006251           JUNCTION     0.51     1.93     9.60     0  01:50        1.44
  WS02006252           JUNCTION     0.33     1.50     9.74     0  00:00        0.93
  WS02006256           JUNCTION     1.10     2.35     9.28     0  00:00        2.35
  WSF200               JUNCTION     0.17     0.29     5.52     0  02:55        0.29
  YS02001580           JUNCTION     0.12     1.05     9.59     0  01:57        0.77
  YS02001583           JUNCTION     0.15     1.14     9.64     0  01:57        0.82
  YS02001586           JUNCTION     0.25     1.13     9.30     0  01:57        1.13
  YS02001590           JUNCTION     0.35     1.40     9.26     0  01:57        1.38
  YS02001593           JUNCTION     0.29     1.35     9.21     0  01:57        1.29
  YS02001596           JUNCTION     0.39     1.69     9.11     0  01:57        1.65
  YS02001600           JUNCTION     0.47     1.87     9.00     0  01:57        1.87
  YS02001601           JUNCTION     0.66     2.06     8.90     0  01:55        2.06
  YS02001602           JUNCTION     0.56     1.87     8.77     0  01:56        1.87
  YS02001605           JUNCTION     0.52     1.78     8.68     0  01:56        1.77
  YS02001607           JUNCTION     0.49     1.68     8.53     0  02:10        1.68
  YS02001610           JUNCTION     0.53     1.68     8.48     0  01:56        1.68
  YS02001613           JUNCTION     0.49     1.70     8.54     0  02:10        1.70
  YS02001616           JUNCTION     0.42     1.61     8.52     0  01:56        1.60
  YS02001619           JUNCTION     0.40     1.61     8.54     0  01:56        1.61
  YS02001622           JUNCTION     0.39     1.62     8.52     0  01:56        1.62
  YS02001625           JUNCTION     0.63     1.78     8.38     0  01:57        1.78
  YS02001629           JUNCTION     0.52     1.85     8.40     0  01:56        1.85
  YS02001633           JUNCTION     0.59     2.05     8.51     0  01:59        2.00
  YS02001641           JUNCTION     0.55     1.97     8.41     0  02:00        1.94
  YS02001644           JUNCTION     0.54     1.92     8.35     0  02:00        1.92
  YS02001647           JUNCTION     0.32     1.82     8.43     0  02:00        1.79
  YS02001649           JUNCTION     0.35     2.05     8.44     0  02:00        2.05
  YS02001652           JUNCTION     0.23     2.14     8.73     0  02:00        1.86
  YS02001655           JUNCTION     0.17     2.18     9.03     0  02:00        1.60
  YS02001658           JUNCTION     0.12     2.30     9.44     0  02:00        1.31
  YS02001661           JUNCTION     0.16     2.04     9.44     0  02:00        1.06
  YS02001664           JUNCTION     0.07     0.91     8.83     0  02:01        0.48
  YS02001745           JUNCTION     0.07     2.15     9.67     0  02:00        1.00
  YS02001748           JUNCTION     0.11     2.27     9.35     0  02:00        1.36
  YS02001751           JUNCTION     0.13     2.20     9.08     0  02:00        1.50
  YS02001754           JUNCTION     0.18     2.20     8.81     0  02:00        1.74
  YS02001757           JUNCTION     0.35     2.21     8.47     0  02:00        2.06
  YS02001759           JUNCTION     0.29     2.19     8.56     0  02:00        2.03
  YS02001762           JUNCTION     0.28     2.15     8.55     0  02:00        2.00
  YS02001765           JUNCTION     0.26     2.10     8.55     0  01:59        1.95
  YS02001767           JUNCTION     0.26     2.03     8.52     0  01:59        1.93
  YS02001770           JUNCTION     0.27     1.95     8.44     0  01:59        1.95
  YS02001774           JUNCTION     0.33     2.01     8.43     0  02:00        1.99
  YS02001779           JUNCTION     0.17     1.68     8.37     0  01:59        1.68
  YS02001783           JUNCTION     0.30     1.42     7.56     0  01:59        1.23
  YS02001784           JUNCTION     0.31     1.27     7.34     0  01:59        1.16
  YS02001786           JUNCTION     0.26     1.00     7.03     0  01:59        0.87
  YS02001788           JUNCTION     0.19     0.62     6.60     0  02:00        0.62
  YS02001790           JUNCTION     0.22     0.72     6.37     0  02:02        0.72
  YS02001791           JUNCTION     0.14     0.44     5.91     0  02:02        0.42
  YS02001793           JUNCTION     0.08     0.25     5.09     0  02:05        0.25
  YS02001882           JUNCTION     0.37     1.80     8.52     0  01:58        1.63
  YS02001884           JUNCTION     0.45     1.87     8.48     0  01:58        1.73
  YS02001887           JUNCTION     0.53     1.88     8.42     0  01:58        1.81
  YS02001890           JUNCTION     0.56     1.81     8.32     0  01:58        1.81
  YS02001895           JUNCTION     0.34     1.58     8.32     0  01:58        1.56
  YS02001898           JUNCTION     0.35     1.58     8.31     0  02:10        1.56
  YS02001901           JUNCTION     0.45     1.84     8.44     0  02:10        1.84
  YS02001904           JUNCTION     0.43     1.85     8.48     0  02:10        1.85
  YS02001907           JUNCTION     0.74     1.96     8.25     0  01:59        1.96
  YS02001910           JUNCTION     0.55     2.00     8.51     0  01:58        1.96
  YS02001915           JUNCTION     0.37     1.92     8.64     0  01:59        1.90
  YS02001918           JUNCTION     0.21     1.81     8.88     0  01:59        1.81
  YS02001920           JUNCTION     0.29     2.14     9.15     0  01:59        2.04
  YS02001923           JUNCTION     0.16     2.03     9.29     0  01:59        1.94
  YS02001926           JUNCTION     0.19     1.90     9.35     0  01:59        1.90
  YS02001929           JUNCTION     0.11     1.78     9.47     0  01:59        1.66
  YS02006553           JUNCTION     0.74     2.02     8.31     0  01:59        1.97
  YS02006556           JUNCTION     0.71     2.05     8.36     0  01:59        1.94
  YS02006558           JUNCTION     0.75     2.11     8.38     0  01:59        2.00
  YS02006561           JUNCTION     0.19     1.12     7.78     0  01:59        0.89
  YS02163301           JUNCTION     0.54     1.94     8.45     0  01:59        1.91
  YS02163601           JUNCTION     0.61     2.07     8.47     0  01:59        2.00
  YS02164001           JUNCTION     0.54     1.98     8.44     0  02:00        1.94
  CC-1                 OUTFALL      0.00     0.00     0.00     0  00:00        0.00
  CC-2                 OUTFALL      0.00     0.00     0.00     0  00:00        0.00
  JK-1                 OUTFALL      0.00     0.00     0.00     0  00:00        0.00
  JK-2                 OUTFALL      0.00     0.00     0.00     0  00:00        0.00
  WSC                  OUTFALL      0.18     0.30     0.97     0  02:58        0.30
  CC-storage           STORAGE      0.16     0.80     6.30     0  00:00        0.76
  JK-storage           STORAGE      0.02     2.99     3.79     0  00:00        0.68
  
  
  *******************
  Node Inflow Summary
  *******************
  
  -------------------------------------------------------------------------------------------------
                                  Maximum  Maximum                  Lateral       Total        Flow
                                  Lateral    Total  Time of Max      Inflow      Inflow     Balance
                                   Inflow   Inflow   Occurrence      Volume      Volume       Error
  Node                 Type           LPS      LPS  days hr:min    10^6 ltr    10^6 ltr     Percent
  -------------------------------------------------------------------------------------------------
  WS02003060           JUNCTION     16.53   548.10     0  02:56       0.471        4.97       0.048
  WS02003066           JUNCTION      0.00   531.17     0  02:55           0        4.51       0.034
  WS02003067           JUNCTION      0.00   531.11     0  02:55           0        4.51       0.095
  WS02003069           JUNCTION      0.32   547.97     0  02:56     0.00912        4.98       0.089
  WS02003072           JUNCTION      0.00   547.57     0  02:56           0        4.98       0.157
  WS02003073           JUNCTION      1.82   549.25     0  02:57      0.0519        5.02       0.122
  WS02004401           JUNCTION      0.00   536.23     0  02:52           0        4.61       0.232
  WS02004402           JUNCTION      0.00   536.80     0  02:53           0         4.6       0.234
  WS02004403           JUNCTION      0.00   535.87     0  02:51           0        4.59       0.229
  WS02004404           JUNCTION      0.16   547.46     0  02:56     0.00462        4.58       0.150
  WS02004405           JUNCTION      0.04   602.42     0  02:56     0.00109        4.58       0.226
  WS02004406           JUNCTION      0.00   538.73     0  02:53           0        4.57       0.470
  WS02004407           JUNCTION      0.00   535.02     0  02:53           0        4.55       0.027
  WS02004409           JUNCTION      0.00   534.24     0  02:53           0        4.55       0.065
  WS02004410           JUNCTION      0.00   532.98     0  02:54           0        4.54       0.108
  WS02004411           JUNCTION      0.00   532.50     0  02:54           0        4.54       0.132
  WS02004412           JUNCTION      0.00   531.65     0  02:54           0        4.53       0.173
  WS02004413           JUNCTION      0.00   531.63     0  02:55           0        4.52       0.318
  WS02006109           JUNCTION      1.23   546.01     0  02:49      0.0351        4.66       0.159
  WS02006110           JUNCTION      0.00   546.60     0  02:49           0        4.65       0.150
  WS02006111           JUNCTION      0.00   559.25     0  02:52           0        4.64       0.028
  WS02006112           JUNCTION      0.00   542.69     0  02:49           0        4.64       0.450
  WS02006113           JUNCTION      0.00   555.38     0  02:48           0        4.65       0.039
  WS02006115           JUNCTION      0.00   543.80     0  02:49           0        4.62       0.161
  WS02006116           JUNCTION      0.00   539.38     0  02:49           0        4.61       0.047
  WS02006228           JUNCTION      0.00   544.18     0  02:49           0        4.63       0.069
  WS02006229           JUNCTION      0.00   543.81     0  02:49           0        4.64       0.152
  WS02006230           JUNCTION     10.28   575.80     0  02:58       0.293        4.64       0.109
  WS02006231           JUNCTION      0.00   563.94     0  03:20           0        4.34      -0.083
  WS02006232           JUNCTION      0.00   559.57     0  02:58           0        4.36       0.274
  WS02006234           JUNCTION      0.00   550.95     0  02:46           0        4.34      -0.455
  WS02006235           JUNCTION      0.00   586.00     0  01:43           0         4.5       0.098
  WS02006238           JUNCTION      0.00   425.59     0  03:18           0        3.44      -0.483
  WS02006239           JUNCTION      0.00   421.08     0  03:18           0        3.29      -0.491
  WS02006240           JUNCTION      0.00   418.11     0  03:16           0        3.24      -0.304
  WS02006242           JUNCTION      0.00   419.61     0  03:16           0        3.23      -0.074
  WS02006243           JUNCTION      0.00   420.37     0  03:17           0        3.23      -0.031
  WS02006245           JUNCTION      0.00   491.24     0  01:52           0        3.27       0.977
  WS02006247           JUNCTION      0.00   478.28     0  01:52           0        3.26      -0.165
  WS02006248           JUNCTION      0.00   529.63     0  01:49           0        3.27       0.121
  WS02006249           JUNCTION      0.00   541.29     0  01:52           0        3.43       0.816
  WS02006251           JUNCTION      0.08   436.19     0  01:49     0.00219        3.43       0.077
  WS02006252           JUNCTION      0.00   400.00     0  00:00           0        3.42      -0.247
  WS02006256           JUNCTION      0.00   300.00     0  00:00           0        1.51     -13.769
  WSF200               JUNCTION      0.00   531.24     0  02:55           0         4.5       0.012
  YS02001580           JUNCTION      0.00   127.30     0  01:56           0      0.0043       1.098
  YS02001583           JUNCTION      0.00   211.09     0  01:57           0      0.0151      -6.308
  YS02001586           JUNCTION    561.92   561.97     0  02:04         1.3        1.32       0.121
  YS02001590           JUNCTION      0.00   319.79     0  02:10           0        1.13      -0.030
  YS02001593           JUNCTION      0.00   318.92     0  02:10           0        1.13       0.022
  YS02001596           JUNCTION      0.00   317.82     0  02:06           0        1.13       0.006
  YS02001600           JUNCTION      0.00   317.97     0  02:10           0        1.13       0.018
  YS02001601           JUNCTION   1053.15  1370.63     0  02:03        1.83        2.96       0.032
  YS02001602           JUNCTION      0.00   538.00     0  01:56           0        2.04       0.025
  YS02001605           JUNCTION      0.00   537.62     0  01:56           0        1.97       0.029
  YS02001607           JUNCTION      0.00   536.48     0  01:56           0        1.97       0.101
  YS02001610           JUNCTION      0.00   540.28     0  01:56           0        2.02       0.126
  YS02001613           JUNCTION      0.00   546.50     0  01:56           0        1.73       0.099
  YS02001616           JUNCTION      0.00   555.60     0  01:56           0        1.73       0.027
  YS02001619           JUNCTION   1001.09  1001.09     0  02:04        2.08        3.76       0.001
  YS02001622           JUNCTION      0.00   951.94     0  02:19           0         3.7      -0.002
  YS02001625           JUNCTION      0.00  1099.70     0  02:04           0        3.76       0.240
  YS02001629           JUNCTION      0.00   951.83     0  02:18           0        3.26       0.027
  YS02001633           JUNCTION    789.33  1419.23     0  01:58        1.33        4.51       0.080
  YS02001641           JUNCTION      0.00  1415.51     0  01:58           0        4.44       0.066
  YS02001644           JUNCTION    707.40  1861.24     0  01:58        1.15        5.58       0.062
  YS02001647           JUNCTION      0.00  1861.08     0  01:58           0        5.45       0.007
  YS02001649           JUNCTION      0.00  2151.55     0  01:58           0        6.49       0.006
  YS02001652           JUNCTION      0.00   914.42     0  02:01           0        1.04      -0.074
  YS02001655           JUNCTION      0.15   914.36     0  02:01     0.00439        1.05       0.096
  YS02001658           JUNCTION      0.00   914.11     0  02:01           0        1.04      -0.089
  YS02001661           JUNCTION      0.00   904.86     0  02:01           0        1.04       0.021
  YS02001664           JUNCTION    696.57   696.57     0  02:02        1.04        1.04      -0.017
  YS02001745           JUNCTION    457.35   672.31     0  02:00       0.638        0.64       0.147
  YS02001748           JUNCTION      0.04   585.76     0  02:00     0.00128       0.643      -0.297
  YS02001751           JUNCTION      0.01   581.27     0  02:01    0.000313        0.65       0.099
  YS02001754           JUNCTION      0.26   581.64     0  02:01     0.00741       0.665      -0.142
  YS02001757           JUNCTION      0.00  3277.15     0  02:05           0        9.34       0.017
  YS02001759           JUNCTION    632.51  1419.09     0  02:00       0.878        2.19       0.003
  YS02001762           JUNCTION      0.00   817.79     0  02:00           0        1.32       0.006
  YS02001765           JUNCTION      0.00   817.22     0  02:00           0        1.32       0.009
  YS02001767           JUNCTION      0.54   818.38     0  02:00      0.0152        1.32       0.005
  YS02001770           JUNCTION    882.92   882.92     0  02:02        1.35        1.39      -0.021
  YS02001774           JUNCTION      0.00   482.62     0  01:59           0       0.102       1.078
  YS02001779           JUNCTION      0.01   490.65     0  01:59    0.000142      0.0614      -1.098
  YS02001783           JUNCTION      0.00  1160.06     0  02:00           0        3.46       0.009
  YS02001784           JUNCTION      1.06  1161.14     0  02:01      0.0302        3.49       0.016
  YS02001786           JUNCTION      0.06  1161.11     0  02:00      0.0016        3.49       0.020
  YS02001788           JUNCTION      0.07  1161.19     0  02:01     0.00202        3.49       0.008
  YS02001790           JUNCTION      0.15  1174.95     0  01:59     0.00442         3.5       0.004
  YS02001791           JUNCTION      0.00  1288.79     0  02:01           0         3.5       0.002
  YS02001793           JUNCTION      0.00  1250.36     0  02:05           0         3.5      -0.002
  YS02001882           JUNCTION      0.00    48.45     0  01:57           0      0.0126       5.247
  YS02001884           JUNCTION      0.00    86.20     0  01:57           0       0.048       5.565
  YS02001887           JUNCTION    692.70   692.70     0  02:01       0.926       0.959       0.472
  YS02001890           JUNCTION      0.00   692.98     0  02:01           0       0.918       0.568
  YS02001895           JUNCTION      0.00   517.11     0  02:03           0       0.872       0.180
  YS02001898           JUNCTION      0.00   517.20     0  02:03           0       0.871       0.042
  YS02001901           JUNCTION      0.00   517.03     0  02:02           0       0.873       0.381
  YS02001904           JUNCTION      0.00   516.96     0  02:05           0       0.878       0.328
  YS02001907           JUNCTION      0.00  1676.25     0  02:03           0         2.9       0.625
  YS02001910           JUNCTION      0.00  1160.44     0  02:03           0        2.03       0.356
  YS02001915           JUNCTION    767.82  1159.99     0  02:03        1.28        2.08       0.086
  YS02001918           JUNCTION      0.00   503.88     0  01:59           0       0.834       0.030
  YS02001920           JUNCTION      2.87   499.42     0  01:59      0.0818       0.814       0.110
  YS02001923           JUNCTION      0.04   539.87     0  01:58     0.00107       0.715      -0.057
  YS02001926           JUNCTION      0.05   896.18     0  01:59     0.00149       0.694      -0.068
  YS02001929           JUNCTION    366.35   707.42     0  01:59       0.674       0.679      -0.060
  YS02006553           JUNCTION      0.00   794.06     0  02:16           0        2.16       0.558
  YS02006556           JUNCTION      0.00   793.97     0  02:15           0        2.16       0.381
  YS02006558           JUNCTION    908.48  1171.00     0  01:59        1.35        3.49       0.100
  YS02006561           JUNCTION      0.00  1169.92     0  01:59           0        3.46       0.002
  YS02163301           JUNCTION      0.00   953.25     0  02:19           0        3.25       0.051
  YS02163601           JUNCTION      0.11  1418.81     0  01:58     0.00313        4.43       0.115
  YS02164001           JUNCTION      0.00  1417.47     0  01:58           0        4.43       0.057
  CC-1                 OUTFALL       0.00   683.00     0  00:00           0        4.07       0.000
  CC-2                 OUTFALL       0.00   683.00     0  00:00           0        4.07       0.000
  JK-1                 OUTFALL       0.00  1000.00     0  00:00           0        1.25       0.000
  JK-2                 OUTFALL       0.00  1000.00     0  00:00           0        1.25       0.000
  WSC                  OUTFALL       0.00   549.08     0  02:58           0        5.01       0.000
  CC-storage           STORAGE       0.00  3277.18     0  02:05           0        11.6      -0.379
  JK-storage           STORAGE       0.00  1297.69     0  02:05           0        3.65      -8.194
  
  
  **********************
  Node Surcharge Summary
  **********************
  
  Surcharging occurs when water rises above the top of the highest conduit.
  ---------------------------------------------------------------------
                                               Max. Height   Min. Depth
                                   Hours       Above Crown    Below Rim
  Node                 Type      Surcharged         Meters       Meters
  ---------------------------------------------------------------------
  WS02004404           JUNCTION        0.01          0.011        2.769
  WS02006109           JUNCTION        1.69          0.211        1.609
  WS02006110           JUNCTION        0.10          0.067        1.783
  WS02006112           JUNCTION        1.19          0.078        1.602
  WS02006228           JUNCTION        1.68          0.239        1.961
  WS02006229           JUNCTION        1.71          0.275        2.175
  WS02006230           JUNCTION        0.09          0.103        1.467
  WS02006231           JUNCTION        0.95          1.530        0.000
  WS02006232           JUNCTION        1.80          1.480        0.000
  WS02006234           JUNCTION        1.39          1.240        0.000
  WS02006235           JUNCTION        1.62          1.290        0.000
  WS02006238           JUNCTION        1.74          1.430        0.000
  WS02006239           JUNCTION        1.65          1.290        0.000
  WS02006240           JUNCTION        1.64          1.390        0.000
  WS02006242           JUNCTION        1.78          0.820        0.000
  WS02006243           JUNCTION        1.61          0.770        0.000
  WS02006245           JUNCTION        1.59          0.850        0.000
  WS02006247           JUNCTION        1.62          0.760        0.000
  WS02006248           JUNCTION        1.57          0.380        0.000
  WS02006249           JUNCTION        1.60          0.390        0.000
  WS02006251           JUNCTION        1.24          0.896        0.284
  WS02006252           JUNCTION        2.37          1.100        0.000
  WS02006256           JUNCTION        6.78          2.050        0.000
  YS02001580           JUNCTION        0.47          0.450        0.000
  YS02001583           JUNCTION        0.48          0.500        0.000
  YS02001586           JUNCTION        0.57          0.510        0.000
  YS02001590           JUNCTION        0.64          0.750        0.000
  YS02001593           JUNCTION        0.64          0.732        0.108
  YS02001596           JUNCTION        0.74          0.965        0.105
  YS02001600           JUNCTION        0.88          1.190        0.000
  YS02001601           JUNCTION        1.28          1.440        0.000
  YS02001602           JUNCTION        1.14          1.270        0.000
  YS02001605           JUNCTION        1.08          1.180        0.000
  YS02001607           JUNCTION        0.58          0.680        0.000
  YS02001610           JUNCTION        0.60          0.680        0.000
  YS02001613           JUNCTION        0.57          0.700        0.000
  YS02001616           JUNCTION        0.53          0.610        0.000
  YS02001619           JUNCTION        0.51          0.610        0.000
  YS02001622           JUNCTION        0.50          0.620        0.000
  YS02001625           JUNCTION        0.69          0.780        0.000
  YS02001629           JUNCTION        0.41          0.470        0.000
  YS02001633           JUNCTION        0.69          1.033        0.027
  YS02001641           JUNCTION        0.58          0.969        0.131
  YS02001644           JUNCTION        0.52          0.920        0.000
  YS02001647           JUNCTION        0.30          0.817        0.083
  YS02001649           JUNCTION        0.33          1.050        0.000
  YS02001652           JUNCTION        0.23          1.105        0.025
  YS02001655           JUNCTION        0.17          1.181        0.019
  YS02001658           JUNCTION        0.10          1.300        0.000
  YS02001661           JUNCTION        0.01          0.965        0.425
  YS02001745           JUNCTION        0.01          1.153        0.197
  YS02001748           JUNCTION        0.04          1.190        0.000
  YS02001751           JUNCTION        0.12          1.200        0.000
  YS02001754           JUNCTION        0.17          1.150        0.000
  YS02001757           JUNCTION        0.31          1.210        0.000
  YS02001759           JUNCTION        0.27          1.193        0.017
  YS02001762           JUNCTION        0.26          1.150        0.000
  YS02001765           JUNCTION        0.25          1.100        0.000
  YS02001767           JUNCTION        0.23          1.030        0.000
  YS02001770           JUNCTION        0.23          0.920        0.000
  YS02001774           JUNCTION        0.26          1.010        0.040
  YS02001779           JUNCTION        0.19          0.680        0.000
  YS02001783           JUNCTION        0.44          0.624        0.976
  YS02001784           JUNCTION        0.42          0.468        1.022
  YS02001786           JUNCTION        0.33          0.204        1.226
  YS02001882           JUNCTION        0.39          0.800        0.030
  YS02001884           JUNCTION        0.40          0.807        0.063
  YS02001887           JUNCTION        0.43          0.830        0.120
  YS02001890           JUNCTION        0.44          0.760        0.000
  YS02001895           JUNCTION        0.38          0.578        0.172
  YS02001898           JUNCTION        0.37          0.549        0.191
  YS02001901           JUNCTION        0.42          0.835        0.035
  YS02001904           JUNCTION        0.41          0.850        0.000
  YS02001907           JUNCTION        0.62          0.950        0.000
  YS02001910           JUNCTION        0.47          0.999        0.101
  YS02001915           JUNCTION        0.39          0.918        0.082
  YS02001918           JUNCTION        0.31          0.810        0.000
  YS02001920           JUNCTION        0.32          1.140        0.000
  YS02001923           JUNCTION        0.02          0.820        0.000
  YS02001926           JUNCTION        0.03          0.900        0.000
  YS02001929           JUNCTION        0.01          0.780        0.000
  YS02006553           JUNCTION        0.64          1.022        0.168
  YS02006556           JUNCTION        0.54          1.012        0.338
  YS02006558           JUNCTION        0.53          1.010        0.390
  YS02006561           JUNCTION        0.28          0.319        0.831
  YS02163301           JUNCTION        0.67          0.937        0.093
  YS02163601           JUNCTION        0.72          1.071        0.009
  YS02164001           JUNCTION        0.60          0.978        0.122
  
  
  *********************
  Node Flooding Summary
  *********************
  
  Flooding refers to all water that overflows a node, whether it ponds or not.
  --------------------------------------------------------------------------
                                                             Total   Maximum
                                 Maximum   Time of Max       Flood    Ponded
                        Hours       Rate    Occurrence      Volume     Depth
  Node                 Flooded       LPS   days hr:min    10^6 ltr    Meters
  --------------------------------------------------------------------------
  WS02006231              0.01     47.01      0  03:07       0.000     0.000
  WS02006232              0.01      1.68      0  02:10       0.000     0.000
  WS02006234              0.01     35.69      0  03:20       0.000     0.000
  WS02006235              0.01     18.12      0  01:53       0.000     0.000
  WS02006238              0.01     18.38      0  01:53       0.000     0.000
  WS02006239              0.01      2.78      0  02:10       0.000     0.000
  WS02006240              0.01      4.51      0  02:10       0.000     0.000
  WS02006242              0.02     67.28      0  01:52       0.001     0.000
  WS02006243              0.01    148.30      0  01:50       0.000     0.000
  WS02006245              0.01    162.33      0  01:50       0.000     0.000
  WS02006247              0.01    108.44      0  01:55       0.000     0.000
  WS02006248              0.33    198.44      0  01:50       0.010     0.000
  WS02006249              1.14    183.28      0  01:49       0.121     0.000
  WS02006252              0.01    298.44      0  01:46       0.002     0.000
  WS02006256              1.36    299.83      0  03:43       0.657     0.000
  YS02001580              0.01     86.34      0  01:57       0.000     0.000
  YS02001583              0.01    136.84      0  01:57       0.000     0.000
  YS02001586              0.37    244.42      0  02:04       0.174     0.000
  YS02001590              0.01      2.81      0  01:57       0.000     0.000
  YS02001600              0.01      1.90      0  01:57       0.000     0.000
  YS02001601              0.50    972.81      0  02:03       0.921     0.000
  YS02001602              0.35     61.99      0  02:10       0.070     0.000
  YS02001605              0.01      4.70      0  01:56       0.000     0.000
  YS02001607              0.01      0.07      0  02:10       0.000     0.000
  YS02001610              0.30    481.95      0  02:04       0.341     0.000
  YS02001613              0.01      0.33      0  02:10       0.000     0.000
  YS02001616              0.01     22.35      0  01:56       0.000     0.000
  YS02001619              0.01     98.73      0  01:56       0.000     0.000
  YS02001622              0.01    141.08      0  01:56       0.000     0.000
  YS02001625              0.25   1099.32      0  02:04       0.560     0.000
  YS02001629              0.08    235.17      0  01:56       0.030     0.000
  YS02001644              0.10    745.99      0  02:01       0.125     0.000
  YS02001649              0.01    153.24      0  02:00       0.001     0.000
  YS02001658              0.01    364.18      0  02:00       0.000     0.000
  YS02001748              0.01    342.43      0  02:00       0.001     0.000
  YS02001751              0.01     68.60      0  02:00       0.000     0.000
  YS02001754              0.01     51.99      0  02:00       0.000     0.000
  YS02001757              0.01     57.72      0  02:00       0.000     0.000
  YS02001762              0.01     10.51      0  02:00       0.000     0.000
  YS02001765              0.01     72.90      0  01:59       0.000     0.000
  YS02001767              0.01     28.00      0  01:59       0.000     0.000
  YS02001770              0.01    180.81      0  01:59       0.001     0.000
  YS02001779              0.08    438.36      0  01:59       0.046     0.000
  YS02001890              0.11    178.26      0  02:01       0.041     0.000
  YS02001904              0.01      0.35      0  02:10       0.000     0.000
  YS02001907              0.26   1387.74      0  02:03       0.737     0.000
  YS02001918              0.01    168.27      0  02:00       0.002     0.000
  YS02001920              0.01     10.21      0  01:59       0.000     0.000
  YS02001923              0.01    197.59      0  01:59       0.001     0.000
  YS02001926              0.01    694.97      0  01:59       0.003     0.000
  YS02001929              0.01    374.93      0  01:59       0.002     0.000
  
  
  **********************
  Storage Volume Summary
  **********************
  
  ------------------------------------------------------------------------------------------------
                         Average    Avg   Evap  Exfil     Maximum    Max    Time of Max    Maximum
                          Volume   Pcnt   Pcnt   Pcnt      Volume   Pcnt     Occurrence    Outflow
  Storage Unit           1000 m³   Full   Loss   Loss     1000 m³   Full    days hr:min        LPS
  ------------------------------------------------------------------------------------------------
  CC-storage               0.458    7.1    0.0    0.0       2.229   34.8       0  00:00    1783.53
  JK-storage               0.001    0.4    0.0    0.0       0.150   51.6       0  00:00    2300.00
  
  
  ***********************
  Outfall Loading Summary
  ***********************
  
  -----------------------------------------------------------
                         Flow       Avg       Max       Total
                         Freq      Flow      Flow      Volume
  Outfall Node           Pcnt       LPS       LPS    10^6 ltr
  -----------------------------------------------------------
  CC-1                  39.47    683.00    683.00       4.069
  CC-2                  39.47    683.00    683.00       4.069
  JK-1                   9.69    997.67   1000.00       1.246
  JK-2                   9.69    997.67   1000.00       1.246
  WSC                   99.94    252.99    549.08       5.015
  -----------------------------------------------------------
  System                39.66   3614.33   3898.80      15.644
  
  
  ********************
  Link Flow Summary
  ********************
  
  -----------------------------------------------------------------------------
                                 Maximum  Time of Max   Maximum    Max/    Max/
                                  |Flow|   Occurrence   |Veloc|    Full    Full
  Link                 Type          LPS  days hr:min     m/sec    Flow   Depth
  -----------------------------------------------------------------------------
  1                    CONDUIT    549.08     0  02:58      2.82    0.19    0.30
  WS02003060WS02003069 CONDUIT    547.65     0  02:56      1.64    0.21    0.34
  WS02003066WSF200     CONDUIT    531.24     0  02:55      2.85    0.09    0.22
  WS02003067WS02003066 CONDUIT    531.17     0  02:55      1.20    0.17    0.41
  WS02003069WS02003072 CONDUIT    547.57     0  02:56      1.36    0.26    0.38
  WS02003072WS02003073 CONDUIT    547.43     0  02:57      1.43    1.18    0.37
  WS02004401WS02004402 CONDUIT    536.80     0  02:53      1.22    0.64    0.88
  WS02004402WS02004403 CONDUIT    535.87     0  02:51      1.24    0.77    0.91
  WS02004403WS02004404 CONDUIT    547.29     0  02:56      1.24    0.40    0.95
  WS02004404WS02004405 CONDUIT    602.39     0  02:56      1.45    5.90    0.97
  WS02004405WS02004406 CONDUIT    538.73     0  02:53      1.46    1.06    0.96
  WS02004406WS02004407 CONDUIT    535.02     0  02:53      1.04    0.24    0.62
  WS02004407WS02004409 CONDUIT    534.24     0  02:53      1.59    0.19    0.48
  WS02004409WS02004410 CONDUIT    532.98     0  02:54      1.06    0.69    0.67
  WS02004410WS02004411 CONDUIT    532.50     0  02:54      1.12    0.73    0.68
  WS02004411WS02004412 CONDUIT    531.65     0  02:54      1.22    0.76    0.69
  WS02004412WS02004413 CONDUIT    531.63     0  02:55      1.22    0.36    0.77
  WS02004413WS02003067 CONDUIT    531.11     0  02:55      1.10    0.23    0.59
  WS02006109WS02006110 CONDUIT    546.60     0  02:49      1.09    1.05    1.00
  WS02006110WS02006113 CONDUIT    555.38     0  02:48      1.32    0.51    0.79
  WS02006111WS02006112 CONDUIT    542.69     0  02:49      1.95    0.26    0.67
  WS02006112WS02006115 CONDUIT    543.80     0  02:49      0.82    0.32    0.88
  WS02006113WS02006111 CONDUIT    559.25     0  02:52      2.46    0.67    0.46
  WS02006115WS02006116 CONDUIT    539.38     0  02:49      1.29    0.69    0.78
  WS02006116WS02004401 CONDUIT    536.23     0  02:52      1.21    0.74    0.86
  WS02006228WS02006109 CONDUIT    544.78     0  02:49      1.08    2.38    1.00
  WS02006229WS02006228 CONDUIT    544.18     0  02:49      1.12    1.80    1.00
  WS02006230WS02006229 CONDUIT    543.81     0  02:49      1.41   12.10    1.00
  WS02006231WS02006230 CONDUIT    565.52     0  02:58      1.48    8.58    1.00
  WS02006232WS02006231 CONDUIT    563.94     0  03:20      1.47    1.18    1.00
  WS02006234WS02006232 CONDUIT    559.57     0  02:58      1.45    1.13    1.00
  WS02006235WS02006234 CONDUIT    550.95     0  02:46      1.43    5.81    1.00
  WS02006238WS02006235 CONDUIT    439.28     0  03:17      1.45    0.98    1.00
  WS02006239WS02006238 CONDUIT    425.59     0  03:18      1.11    1.36    1.00
  WS02006240WS02006239 CONDUIT    421.08     0  03:18      1.30    1.33    1.00
  WS02006242WS02006240 CONDUIT    418.11     0  03:16      1.16    1.66    1.00
  WS02006243WS02006242 CONDUIT    419.61     0  03:16      1.41    0.90    1.00
  WS02006245WS02006243 CONDUIT    420.37     0  03:17      1.44    1.24    1.00
  WS02006247WS02006245 CONDUIT    491.24     0  01:52      1.43    3.90    1.00
  WS02006248WS02006247 CONDUIT    478.28     0  01:52      1.46    1.04    1.00
  WS02006249WS02006248 CONDUIT    529.63     0  01:49      1.39    2.90    1.00
  WS02006251WS02006249 CONDUIT    541.29     0  01:52      1.99    1.56    1.00
  WS02006252WS02006251 CONDUIT    418.06     0  01:50     18.78    1.53    1.00
  WS02006256WS02006235 CONDUIT    288.91     0  00:00      4.23    3.06    1.00
  WSF200WS02003060     CONDUIT    531.57     0  02:56      2.06    0.12    0.28
  YS02001580YS02001583 CONDUIT    127.30     0  01:56      0.77    0.49    1.00
  YS02001583YS02001586 CONDUIT    181.70     0  01:57      0.78    0.27    1.00
  YS02001586YS02001590 CONDUIT    319.79     0  02:10      1.26    0.56    1.00
  YS02001590YS02001593 CONDUIT    318.92     0  02:10      1.13    2.00    1.00
  YS02001593YS02001596 CONDUIT    317.82     0  02:06      1.75    0.50    1.00
  YS02001596YS02001600 CONDUIT    317.97     0  02:10      1.22    0.62    1.00
  YS02001600YS02001601 CONDUIT    318.13     0  02:10      1.13    0.55    1.00
  YS02001601YS02001602 CONDUIT    538.00     0  01:56      1.90    1.94    1.00
  YS02001602YS02001605 CONDUIT    537.62     0  01:56      1.90   11.38    1.00
  YS02001605YS02001607 CONDUIT    536.48     0  01:56      1.90    2.94    1.00
  YS02001607YS02001610 CONDUIT    540.28     0  01:56      0.69    0.51    1.00
  YS02001610YS02001613 CONDUIT    546.50     0  01:56      0.70    0.63    1.00
  YS02001613YS02001616 CONDUIT    555.60     0  01:56      0.71    0.48    1.00
  YS02001616YS02001619 CONDUIT    525.28     0  01:56      0.67    0.91    1.00
  YS02001619YS02001622 CONDUIT    951.94     0  02:19      1.21    1.40    1.00
  YS02001622YS02001625 CONDUIT    951.65     0  02:18      1.21    0.51    1.00
  YS02001625YS02001629 CONDUIT    951.83     0  02:18      1.21    0.45    1.00
  YS02001629YS02163301 CONDUIT    953.25     0  02:19      1.21    1.17    1.00
  YS02001633YS02163601 CONDUIT   1418.70     0  01:58      1.81    1.49    1.00
  YS02001641YS02001644 CONDUIT   1415.52     0  01:58      1.80    4.58    1.00
  YS02001644YS02001647 CONDUIT   1861.08     0  01:58      2.39    1.09    1.00
  YS02001647YS02001649 CONDUIT   1855.12     0  01:58      2.36    0.98    1.00
  YS02001649YS02001757 CONDUIT   2154.63     0  01:58      2.74    1.31    1.00
  YS02001652YS02001649 CONDUIT    915.30     0  02:01      1.17    0.45    1.00
  YS02001655YS02001652 CONDUIT    914.42     0  02:01      1.33    0.44    1.00
  YS02001658YS02001655 CONDUIT    914.21     0  02:01      1.94    0.39    1.00
  YS02001661YS02001658 CONDUIT    914.11     0  02:01      2.39    0.36    1.00
  YS02001664YS02001661 CONDUIT    904.86     0  02:01      2.45    0.28    0.95
  YS02001745YS02001748 CONDUIT    584.07     0  02:00      2.29    0.22    1.00
  YS02001748YS02001751 CONDUIT    581.26     0  02:01      1.78    0.29    1.00
  YS02001751YS02001754 CONDUIT    581.38     0  02:01      1.43    0.28    1.00
  YS02001754YS02001757 CONDUIT    579.68     0  02:01      0.74    0.23    1.00
  YS02001757CaochengTiaoxuchi CONDUIT   3277.18     0  02:05      7.31    1.42    0.77
  YS02001759YS02001757 CONDUIT   1417.09     0  02:00      1.80    1.01    1.00
  YS02001762YS02001759 CONDUIT    817.82     0  02:00      1.04    0.94    1.00
  YS02001765YS02001762 CONDUIT    817.79     0  02:00      1.04    0.77    1.00
  YS02001767YS02001765 CONDUIT    817.22     0  02:00      1.04    1.03    1.00
  YS02001770YS02001767 CONDUIT    817.85     0  02:00      1.04    3.24    1.00
  YS02001774YS02001770 CONDUIT    482.62     0  01:59      0.61    0.31    1.00
  YS02001779YS02001774 CONDUIT    490.65     0  01:59      0.63    0.25    1.00
  YS02001783YS02001784 CONDUIT   1160.08     0  02:01      2.31    1.60    1.00
  YS02001784YS02001785 CONDUIT   1161.06     0  02:00      2.31    2.70    1.00
  YS02001786YS02001788 CONDUIT   1161.12     0  02:01      2.48    2.24    0.89
  YS02001788YS02001790 CONDUIT   1174.80     0  01:59      2.73    0.87    0.84
  YS02001790YS02001791 CONDUIT   1288.79     0  02:01      3.43    1.40    0.70
  YS02001791YS02001793 CONDUIT   1250.36     0  02:05      6.37    0.54    0.43
  YS02001793JiankangQianchi CONDUIT   1297.69     0  02:05     24.39    0.10    0.50
  YS02001882YS02001884 CONDUIT     48.45     0  01:57      0.11    0.06    1.00
  YS02001884YS02001887 CONDUIT     86.20     0  01:57      0.11    0.11    1.00
  YS02001887YS02001890 CONDUIT    692.98     0  02:01      0.88    1.19    1.00
  YS02001890YS02001895 CONDUIT    517.11     0  02:03      0.66    0.24    1.00
  YS02001895YS02001898 CONDUIT    517.20     0  02:03      0.66    0.90    1.00
  YS02001898YS02001901 CONDUIT    517.03     0  02:02      0.66    0.33    1.00
  YS02001901YS02001904 CONDUIT    516.96     0  02:05      0.66    0.80    1.00
  YS02001904YS02001907 CONDUIT    517.20     0  02:05      0.66    0.18    1.00
  YS02001907YS02006553 CONDUIT    794.06     0  02:16      0.88    0.93    1.00
  YS02001910YS02001907 CONDUIT   1160.04     0  02:03      1.48    0.65    1.00
  YS02001915YS02001910 CONDUIT   1160.44     0  02:03      1.48    0.58    1.00
  YS02001918YS02001915 CONDUIT    503.88     0  01:59      0.64    0.28    1.00
  YS02001920YS02001918 CONDUIT    496.55     0  01:59      0.65    0.48    1.00
  YS02001923YS02001920 CONDUIT    497.87     0  01:59      0.70    0.22    1.00
  YS02001926YS02001923 CONDUIT    581.24     0  01:59      0.97    0.83    1.00
  YS02001929YS02001926 CONDUIT    509.84     0  01:59      1.18    0.24    1.00
  YS02006553YS02006556 CONDUIT    793.97     0  02:15      1.01    0.68    1.00
  YS02006556YS02006558 CONDUIT    794.69     0  02:16      1.01    0.63    1.00
  YS02006558YS02006561 CONDUIT   1169.92     0  01:59      4.14    2.59    1.00
  YS02006561YS02001783 CONDUIT   1160.06     0  02:00      2.31    0.60    1.00
  YS02163301YS02001633 CONDUIT    953.64     0  02:19      1.21    0.90    1.00
  YS02163601YS02164001 CONDUIT   1417.47     0  01:58      1.80    1.26    1.00
  YS02164001YS02001641 CONDUIT   1415.51     0  01:58      1.80    1.93    1.00
  CC-R1                PUMP       683.00     0  00:00              1.00
  CC-R2                PUMP       683.00     0  00:00              1.00
  CC-S1                PUMP       200.00     0  00:00              1.00
  CC-S2                PUMP       200.00     0  00:00              1.00
  JK-R1                PUMP      1000.00     0  00:00              1.00
  JK-R2                PUMP      1000.00     0  00:00              1.00
  JK-S                 PUMP       300.00     0  00:00              1.00
  
  
  ***************************
  Flow Classification Summary
  ***************************
  
  -------------------------------------------------------------------------------------
                      Adjusted    ---------- Fraction of Time in Flow Class ---------- 
                       /Actual         Up    Down  Sub   Sup   Up    Down  Norm  Inlet 
  Conduit               Length    Dry  Dry   Dry   Crit  Crit  Crit  Crit  Ltd   Ctrl  
  -------------------------------------------------------------------------------------
  1                       1.00   0.00  0.00  0.00  0.00  1.00  0.00  0.00  0.30  0.00
  WS02003060WS02003069    1.00   0.00  0.00  0.00  0.98  0.02  0.00  0.00  0.75  0.00
  WS02003066WSF200        1.00   0.05  0.00  0.00  0.00  0.95  0.00  0.00  0.86  0.00
  WS02003067WS02003066    1.00   0.05  0.00  0.00  0.95  0.00  0.00  0.00  0.00  0.00
  WS02003069WS02003072    1.00   0.00  0.00  0.00  0.99  0.01  0.00  0.00  0.77  0.00
  WS02003072WS02003073    1.00   0.00  0.00  0.00  0.00  0.00  0.00  1.00  0.00  0.00
  WS02004401WS02004402    1.00   0.02  0.00  0.00  0.98  0.00  0.00  0.00  0.00  0.00
  WS02004402WS02004403    1.00   0.02  0.00  0.00  0.98  0.00  0.00  0.00  0.00  0.00
  WS02004403WS02004404    1.00   0.00  0.03  0.00  0.97  0.00  0.00  0.00  0.00  0.00
  WS02004404WS02004405    1.00   0.00  0.00  0.00  1.00  0.00  0.00  0.00  0.02  0.00
  WS02004405WS02004406    1.00   0.00  0.00  0.00  1.00  0.00  0.00  0.00  0.00  0.00
  WS02004406WS02004407    1.00   0.00  0.03  0.00  0.97  0.00  0.00  0.00  0.00  0.00
  WS02004407WS02004409    1.00   0.03  0.00  0.00  0.95  0.01  0.00  0.00  0.95  0.00
  WS02004409WS02004410    1.00   0.03  0.00  0.00  0.96  0.00  0.00  0.00  0.00  0.00
  WS02004410WS02004411    1.00   0.04  0.00  0.00  0.96  0.00  0.00  0.00  0.00  0.00
  WS02004411WS02004412    1.00   0.04  0.00  0.00  0.96  0.00  0.00  0.00  0.00  0.00
  WS02004412WS02004413    1.00   0.04  0.00  0.00  0.96  0.00  0.00  0.00  0.00  0.00
  WS02004413WS02003067    1.00   0.04  0.01  0.00  0.00  0.00  0.95  0.00  0.00  0.00
  WS02006109WS02006110    1.00   0.00  0.01  0.00  0.98  0.00  0.01  0.00  0.00  0.00
  WS02006110WS02006113    1.00   0.01  0.01  0.00  0.98  0.00  0.00  0.00  0.00  0.00
  WS02006111WS02006112    1.00   0.02  0.00  0.00  0.98  0.00  0.00  0.00  0.98  0.00
  WS02006112WS02006115    1.00   0.02  0.00  0.00  0.97  0.00  0.00  0.00  0.00  0.00
  WS02006113WS02006111    1.00   0.02  0.00  0.00  0.00  0.98  0.00  0.00  0.14  0.00
  WS02006115WS02006116    1.00   0.02  0.00  0.00  0.97  0.00  0.00  0.01  0.00  0.00
  WS02006116WS02004401    1.00   0.02  0.00  0.00  0.98  0.00  0.00  0.00  0.00  0.00
  WS02006228WS02006109    1.00   0.00  0.00  0.00  1.00  0.00  0.00  0.00  0.01  0.00
  WS02006229WS02006228    1.00   0.00  0.00  0.00  0.99  0.00  0.00  0.01  0.00  0.00
  WS02006230WS02006229    1.00   0.00  0.00  0.00  0.99  0.00  0.00  0.01  0.03  0.00
  WS02006231WS02006230    1.00   0.00  0.00  0.00  0.24  0.00  0.75  0.00  0.00  0.00
  WS02006232WS02006231    1.00   0.00  0.00  0.00  0.99  0.00  0.01  0.00  0.00  0.00
  WS02006234WS02006232    1.00   0.00  0.00  0.00  1.00  0.00  0.00  0.00  0.02  0.00
  WS02006235WS02006234    1.00   0.00  0.00  0.00  0.94  0.00  0.06  0.00  0.00  0.00
  WS02006238WS02006235    1.00   0.00  0.00  0.00  1.00  0.00  0.00  0.00  0.01  0.00
  WS02006239WS02006238    1.00   0.00  0.00  0.00  1.00  0.00  0.00  0.00  0.07  0.00
  WS02006240WS02006239    1.00   0.00  0.00  0.00  0.90  0.00  0.00  0.09  0.22  0.00
  WS02006242WS02006240    1.00   0.00  0.00  0.00  0.94  0.00  0.06  0.00  0.00  0.00
  WS02006243WS02006242    1.00   0.00  0.00  0.00  0.98  0.00  0.00  0.02  0.59  0.00
  WS02006245WS02006243    1.00   0.00  0.00  0.00  0.69  0.00  0.00  0.31  0.01  0.00
  WS02006247WS02006245    1.00   0.00  0.00  0.00  0.97  0.00  0.00  0.02  0.00  0.00
  WS02006248WS02006247    1.00   0.00  0.00  0.00  0.98  0.00  0.00  0.02  0.34  0.00
  WS02006249WS02006248    1.00   0.00  0.00  0.00  0.43  0.00  0.57  0.00  0.00  0.00
  WS02006251WS02006249    1.00   0.00  0.00  0.00  0.99  0.01  0.00  0.00  0.59  0.00
  WS02006252WS02006251    1.00   0.00  0.61  0.00  0.16  0.00  0.24  0.00  0.00  0.00
  WS02006256WS02006235    1.00   0.00  0.00  0.00  0.96  0.04  0.00  0.00  0.01  0.00
  WSF200WS02003060        1.00   0.00  0.05  0.00  0.27  0.68  0.00  0.00  0.67  0.00
  YS02001580YS02001583    1.00   0.24  0.58  0.00  0.17  0.00  0.00  0.00  0.68  0.00
  YS02001583YS02001586    1.00   0.42  0.35  0.00  0.23  0.00  0.00  0.00  0.68  0.00
  YS02001586YS02001590    1.00   0.13  0.00  0.00  0.41  0.04  0.00  0.42  0.37  0.00
  YS02001590YS02001593    1.00   0.13  0.01  0.00  0.09  0.00  0.77  0.00  0.00  0.00
  YS02001593YS02001596    1.00   0.14  0.00  0.00  0.11  0.01  0.00  0.74  0.02  0.00
  YS02001596YS02001600    1.00   0.14  0.00  0.00  0.18  0.01  0.00  0.67  0.05  0.00
  YS02001600YS02001601    1.00   0.13  0.01  0.00  0.86  0.00  0.00  0.00  0.62  0.00
  YS02001601YS02001602    1.00   0.13  0.01  0.00  0.86  0.00  0.00  0.00  0.00  0.00
  YS02001602YS02001605    1.00   0.14  0.00  0.00  0.86  0.00  0.00  0.00  0.00  0.00
  YS02001605YS02001607    1.00   0.14  0.00  0.00  0.86  0.00  0.00  0.00  0.00  0.00
  YS02001607YS02001610    1.00   0.13  0.01  0.00  0.86  0.00  0.00  0.00  0.02  0.00
  YS02001610YS02001613    1.00   0.13  0.00  0.00  0.87  0.00  0.00  0.00  0.01  0.00
  YS02001613YS02001616    1.00   0.13  0.00  0.00  0.87  0.00  0.00  0.00  0.01  0.00
  YS02001616YS02001619    1.00   0.13  0.00  0.00  0.87  0.00  0.00  0.00  0.00  0.00
  YS02001619YS02001622    1.00   0.13  0.00  0.00  0.87  0.00  0.00  0.00  0.29  0.00
  YS02001622YS02001625    1.00   0.13  0.00  0.00  0.87  0.00  0.00  0.00  0.05  0.00
  YS02001625YS02001629    1.00   0.13  0.06  0.00  0.14  0.00  0.68  0.00  0.00  0.00
  YS02001629YS02163301    1.00   0.16  0.01  0.00  0.83  0.00  0.00  0.00  0.00  0.00
  YS02001633YS02163601    1.00   0.00  0.01  0.00  0.99  0.00  0.00  0.00  0.15  0.00
  YS02001641YS02001644    1.00   0.00  0.01  0.00  0.99  0.00  0.00  0.00  0.00  0.00
  YS02001644YS02001647    1.00   0.00  0.18  0.00  0.82  0.00  0.00  0.00  0.00  0.00
  YS02001647YS02001649    1.00   0.00  0.18  0.00  0.49  0.33  0.00  0.00  0.57  0.00
  YS02001649YS02001757    1.00   0.00  0.00  0.00  0.84  0.16  0.00  0.00  0.75  0.00
  YS02001652YS02001649    1.00   0.00  0.00  0.00  0.96  0.04  0.00  0.00  0.76  0.00
  YS02001655YS02001652    1.00   0.00  0.00  0.00  0.16  0.02  0.00  0.82  0.10  0.00
  YS02001658YS02001655    1.00   0.00  0.15  0.00  0.59  0.27  0.00  0.00  0.75  0.00
  YS02001661YS02001658    1.00   0.14  0.00  0.00  0.43  0.42  0.00  0.00  0.73  0.00
  YS02001664YS02001661    1.00   0.13  0.00  0.00  0.75  0.12  0.00  0.00  0.86  0.00
  YS02001745YS02001748    1.00   0.00  0.00  0.00  0.03  0.01  0.00  0.97  0.01  0.00
  YS02001748YS02001751    1.00   0.00  0.00  0.00  0.75  0.25  0.00  0.00  0.84  0.00
  YS02001751YS02001754    1.00   0.00  0.00  0.00  0.09  0.01  0.00  0.89  0.04  0.00
  YS02001754YS02001757    1.00   0.00  0.00  0.00  1.00  0.00  0.00  0.00  0.88  0.00
  YS02001757CaochengTiaoxuchi    1.00   0.00  0.00  0.00  0.04  0.96  0.00  0.00  0.11  0.00
  YS02001759YS02001757    1.00   0.00  0.00  0.00  1.00  0.00  0.00  0.00  0.67  0.00
  YS02001762YS02001759    1.00   0.00  0.00  0.00  1.00  0.00  0.00  0.00  0.06  0.00
  YS02001765YS02001762    1.00   0.00  0.00  0.00  1.00  0.00  0.00  0.00  0.74  0.00
  YS02001767YS02001765    1.00   0.00  0.00  0.00  1.00  0.00  0.00  0.00  0.00  0.00
  YS02001770YS02001767    1.00   0.00  0.00  0.00  1.00  0.00  0.00  0.00  0.00  0.00
  YS02001774YS02001770    1.00   0.00  0.14  0.00  0.70  0.00  0.16  0.00  0.04  0.00
  YS02001779YS02001774    1.00   0.00  0.00  0.00  1.00  0.00  0.00  0.00  0.80  0.00
  YS02001783YS02001784    1.00   0.00  0.19  0.00  0.81  0.00  0.00  0.00  0.56  0.00
  YS02001784YS02001785    1.00   0.00  0.00  0.00  1.00  0.00  0.00  0.00  0.18  0.00
  YS02001786YS02001788    1.00   0.00  0.00  0.00  0.80  0.20  0.00  0.00  0.00  0.00
  YS02001788YS02001790    1.00   0.00  0.00  0.00  0.22  0.78  0.00  0.00  0.82  0.00
  YS02001790YS02001791    1.00   0.00  0.00  0.00  0.01  0.99  0.00  0.00  0.15  0.00
  YS02001791YS02001793    1.00   0.00  0.00  0.00  0.00  1.00  0.00  0.00  0.01  0.00
  YS02001793JiankangQianchi    1.00   0.00  0.00  0.00  0.00  1.00  0.00  0.00  0.21  0.00
  YS02001882YS02001884    1.00   0.16  0.01  0.00  0.83  0.00  0.00  0.00  0.00  0.00
  YS02001884YS02001887    1.00   0.06  0.05  0.00  0.89  0.00  0.00  0.00  0.00  0.00
  YS02001887YS02001890    1.00   0.00  0.00  0.00  0.97  0.00  0.03  0.00  0.00  0.00
  YS02001890YS02001895    1.00   0.00  0.17  0.00  0.83  0.00  0.00  0.00  0.00  0.00
  YS02001895YS02001898    1.00   0.17  0.00  0.00  0.81  0.00  0.02  0.00  0.00  0.00
  YS02001898YS02001901    1.00   0.17  0.00  0.00  0.82  0.00  0.00  0.00  0.01  0.00
  YS02001901YS02001904    1.00   0.17  0.00  0.00  0.83  0.00  0.00  0.00  0.00  0.00
  YS02001904YS02001907    1.00   0.00  0.17  0.00  0.83  0.00  0.00  0.00  0.00  0.00
  YS02001907YS02006553    1.00   0.00  0.02  0.00  0.98  0.00  0.00  0.00  0.00  0.00
  YS02001910YS02001907    1.00   0.00  0.00  0.00  0.97  0.00  0.00  0.03  0.12  0.00
  YS02001915YS02001910    1.00   0.00  0.00  0.00  0.96  0.04  0.00  0.00  0.17  0.00
  YS02001918YS02001915    1.00   0.00  0.01  0.00  0.98  0.02  0.00  0.00  0.77  0.00
  YS02001920YS02001918    1.00   0.00  0.01  0.00  0.99  0.00  0.00  0.00  0.00  0.00
  YS02001923YS02001920    1.00   0.00  0.00  0.00  1.00  0.00  0.00  0.00  0.94  0.00
  YS02001926YS02001923    1.00   0.00  0.07  0.00  0.05  0.00  0.88  0.00  0.00  0.00
  YS02001929YS02001926    1.00   0.00  0.13  0.00  0.87  0.00  0.00  0.00  0.83  0.00
  YS02006553YS02006556    1.00   0.01  0.00  0.00  0.99  0.00  0.00  0.00  0.03  0.00
  YS02006556YS02006558    1.00   0.00  0.00  0.00  1.00  0.00  0.00  0.00  0.00  0.00
  YS02006558YS02006561    1.00   0.19  0.00  0.00  0.05  0.76  0.00  0.00  0.19  0.00
  YS02006561YS02001783    1.00   0.19  0.00  0.00  0.07  0.74  0.00  0.00  0.70  0.00
  YS02163301YS02001633    1.00   0.00  0.16  0.00  0.84  0.00  0.00  0.00  0.00  0.00
  YS02163601YS02164001    1.00   0.00  0.08  0.00  0.92  0.00  0.00  0.00  0.00  0.00
  YS02164001YS02001641    1.00   0.01  0.08  0.00  0.92  0.00  0.00  0.00  0.06  0.00
  
  
  *************************
  Conduit Surcharge Summary
  *************************
  
  ----------------------------------------------------------------------------
                                                           Hours        Hours 
                         --------- Hours Full --------   Above Full   Capacity
  Conduit                Both Ends  Upstream  Dnstream   Normal Flow   Limited
  ----------------------------------------------------------------------------
  WS02003072WS02003073        0.01      0.01      0.01      1.31         0.01
  WS02004403WS02004404        0.01      0.01      0.01      0.01         0.01
  WS02004404WS02004405        0.01      0.01      0.01      2.98         0.01
  WS02004405WS02004406        0.01      0.01      0.01      0.73         0.01
  WS02006109WS02006110        0.10      0.10      1.78      0.16         0.01
  WS02006110WS02006113        0.01      0.01      1.75      0.01         0.01
  WS02006111WS02006112        0.01      0.01      1.99      0.01         0.01
  WS02006112WS02006115        0.01      0.01      1.19      0.01         0.01
  WS02006228WS02006109        1.69      1.79      1.69      2.26         1.69
  WS02006229WS02006228        1.68      1.71      1.68      2.05         1.67
  WS02006230WS02006229        1.89      1.98      1.89      4.01         1.89
  WS02006231WS02006230        0.09      0.09      1.18      3.29         0.01
  WS02006232WS02006231        0.92      0.92      1.80      1.09         0.01
  WS02006234WS02006232        1.61      1.62      1.80      0.71         0.68
  WS02006235WS02006234        1.33      1.38      1.60      2.97         0.22
  WS02006238WS02006235        1.68      1.69      1.82      0.01         0.08
  WS02006239WS02006238        1.71      1.78      1.73      1.77         1.11
  WS02006240WS02006239        1.62      1.68      1.64      1.76         1.08
  WS02006242WS02006240        1.64      1.64      1.86      2.06         0.03
  WS02006243WS02006242        1.63      1.64      1.78      0.01         0.28
  WS02006245WS02006243        1.59      1.61      1.61      1.78         0.98
  WS02006247WS02006245        1.58      1.65      1.58      2.43         1.37
  WS02006248WS02006247        1.58      1.59      1.62      0.01         0.47
  WS02006249WS02006248        1.56      1.56      1.59      2.34         0.02
  WS02006251WS02006249        1.58      1.63      1.59      2.19         1.44
  WS02006252WS02006251        2.37      2.37      2.37      2.37         0.01
  WS02006256WS02006235        2.24      3.06      5.78      1.68         0.06
  YS02001580YS02001583        0.47      0.47      0.50      0.01         0.01
  YS02001583YS02001586        0.48      0.48      0.57      0.01         0.01
  YS02001586YS02001590        0.58      0.58      0.64      0.01         0.01
  YS02001590YS02001593        0.64      0.64      0.66      0.69         0.01
  YS02001593YS02001596        0.65      0.65      0.74      0.01         0.01
  YS02001596YS02001600        0.78      0.78      0.88      0.01         0.01
  YS02001600YS02001601        0.95      0.95      1.28      0.01         0.01
  YS02001601YS02001602        1.14      1.14      1.32      0.90         0.01
  YS02001602YS02001605        1.08      1.08      1.14      2.10         0.01
  YS02001605YS02001607        1.03      1.08      1.03      1.23         1.03
  YS02001607YS02001610        0.57      0.57      0.60      0.01         0.01
  YS02001610YS02001613        0.57      0.57      0.60      0.01         0.01
  YS02001613YS02001616        0.53      0.53      0.57      0.01         0.01
  YS02001616YS02001619        0.51      0.51      0.53      0.01         0.01
  YS02001619YS02001622        0.50      0.51      0.50      0.68         0.48
  YS02001622YS02001625        0.50      0.50      0.69      0.01         0.01
  YS02001625YS02001629        0.41      0.41      0.69      0.01         0.01
  YS02001629YS02163301        0.67      0.67      0.67      0.32         0.30
  YS02001633YS02163601        0.69      0.69      0.72      0.43         0.42
  YS02001641YS02001644        0.52      0.58      0.52      1.35         0.51
  YS02001644YS02001647        0.30      0.30      0.52      0.04         0.01
  YS02001647YS02001649        0.30      0.30      0.33      0.01         0.01
  YS02001649YS02001757        0.31      0.33      0.31      0.33         0.22
  YS02001652YS02001649        0.25      0.25      0.33      0.01         0.01
  YS02001655YS02001652        0.17      0.17      0.23      0.01         0.01
  YS02001658YS02001655        0.10      0.10      0.17      0.01         0.01
  YS02001661YS02001658        0.01      0.01      0.10      0.01         0.01
  YS02001664YS02001661        0.01      0.01      0.02      0.01         0.01
  YS02001745YS02001748        0.01      0.01      0.04      0.01         0.01
  YS02001748YS02001751        0.09      0.09      0.12      0.01         0.01
  YS02001751YS02001754        0.12      0.12      0.17      0.01         0.01
  YS02001754YS02001757        0.19      0.19      0.31      0.01         0.01
  YS02001757CaochengTiaoxuchi        0.01      0.31      0.01      0.40         0.01
  YS02001759YS02001757        0.27      0.27      0.31      0.01         0.01
  YS02001762YS02001759        0.26      0.26      0.27      0.01         0.02
  YS02001765YS02001762        0.25      0.25      0.26      0.01         0.01
  YS02001767YS02001765        0.23      0.23      0.25      0.01         0.03
  YS02001770YS02001767        0.23      0.24      0.23      0.48         0.23
  YS02001774YS02001770        0.23      0.23      0.26      0.01         0.01
  YS02001779YS02001774        0.19      0.19      0.26      0.01         0.01
  YS02001783YS02001784        0.42      0.44      0.42      0.57         0.42
  YS02001784YS02001785        0.33      0.42      0.33      0.77         0.33
  YS02001786YS02001788        0.01      0.33      0.01      0.65         0.01
  YS02001790YS02001791        0.01      0.01      0.01      0.41         0.01
  YS02001882YS02001884        0.39      0.39      0.40      0.01         0.01
  YS02001884YS02001887        0.42      0.42      0.43      0.01         0.01
  YS02001887YS02001890        0.44      0.44      0.45      0.07         0.01
  YS02001890YS02001895        0.38      0.38      0.47      0.01         0.01
  YS02001895YS02001898        0.37      0.37      0.38      0.01         0.01
  YS02001898YS02001901        0.38      0.38      0.42      0.01         0.01
  YS02001901YS02001904        0.41      0.41      0.42      0.01         0.01
  YS02001904YS02001907        0.41      0.41      0.64      0.01         0.01
  YS02001907YS02006553        0.78      0.78      0.84      0.01         0.01
  YS02001910YS02001907        0.47      0.47      0.62      0.01         0.01
  YS02001915YS02001910        0.39      0.39      0.47      0.01         0.01
  YS02001918YS02001915        0.31      0.31      0.39      0.01         0.01
  YS02001920YS02001918        0.31      0.31      0.32      0.01         0.01
  YS02001923YS02001920        0.27      0.27      0.32      0.01         0.01
  YS02001926YS02001923        0.02      0.02      0.03      0.01         0.01
  YS02001929YS02001926        0.01      0.01      0.03      0.01         0.01
  YS02006553YS02006556        0.54      0.54      0.64      0.01         0.01
  YS02006556YS02006558        0.59      0.59      0.65      0.01         0.01
  YS02006558YS02006561        0.35      0.53      0.35      0.72         0.35
  YS02006561YS02001783        0.28      0.28      0.44      0.01         0.01
  YS02163301YS02001633        0.67      0.67      0.71      0.01         0.02
  YS02163601YS02164001        0.60      0.60      0.72      0.26         0.01
  YS02164001YS02001641        0.58      0.60      0.58      0.66         0.47
  
  
  ***************
  Pumping Summary
  ***************
  
  ---------------------------------------------------------------------------------------------------------
                                                  Min       Avg       Max     Total     Power    % Time Off
                        Percent   Number of      Flow      Flow      Flow    Volume     Usage    Pump Curve
  Pump                 Utilized   Start-Ups       LPS       LPS       LPS  10^6 ltr     Kw-hr    Low   High
  ---------------------------------------------------------------------------------------------------------
  CC-R1                   20.90           6      0.00    683.00    683.00     4.068     65.16    0.0  100.0
  CC-R2                   20.90           6      0.00    683.00    683.00     4.068     65.16    0.0  100.0
  CC-S1                   29.96          17      0.00    200.00    200.00     1.708     14.40    0.0   56.3
  CC-S2                   29.96          17      0.00    200.00    200.00     1.708     14.40    0.0   56.3
  JK-R1                    4.45         339      0.00    997.67   1000.00     1.265      3.14    0.0    0.0
  JK-R2                    4.45         339      0.00    997.67   1000.00     1.265      3.14    0.0    0.0
  JK-S                    18.01         605      0.00    296.27    300.00     1.486     34.08    0.0    0.0
  

  Analysis begun on:  Thu Jan 16 14:22:52 2025
  Analysis ended on:  Thu Jan 16 14:22:53 2025
  Total elapsed time: 00:00:01