
  EPA STORM WATER MANAGEMENT MODEL - VERSION 5.2 (Build 5.2.4)
  PYSWMM TOOLKIT API - VERSION v1.0 (2023-11-27)
  ------------------------------------------------------------

  WARNING 04: minimum elevation drop used for Conduit WS02004404WS02004405
  WARNING 03: negative offset ignored for Link YS02001904YS02001907
  
  ****************
  Analysis Options
  ****************
  Flow Units ............... LPS
  Process Models:
    Rainfall/Runoff ........ YES
    RDII ................... NO
    Snowmelt ............... NO
    Groundwater ............ NO
    Flow Routing ........... YES
    Ponding Allowed ........ NO
    Water Quality .......... NO
  Infiltration Method ...... HORTON
  Flow Routing Method ...... DYNWAVE
  Surcharge Method ......... EXTRAN
  Starting Date ............ 08/28/2015 08:00:00
  Ending Date .............. 08/28/2015 16:00:00
  Antecedent Dry Days ...... 8.0
  Report Time Step ......... 00:01:00
  Wet Time Step ............ 00:01:00
  Dry Time Step ............ 00:01:00
  Routing Time Step ........ 30.00 sec
  Variable Time Step ....... YES
  Maximum Trials ........... 8
  Number of Threads ........ 4
  Head Tolerance ........... 0.001500 m
  
  
  **************************        Volume         Depth
  Runoff Quantity Continuity     hectare-m            mm
  **************************     ---------       -------
  Total Precipitation ......         3.574       107.739
  Evaporation Loss .........         0.000         0.000
  Infiltration Loss ........         0.106         3.182
  Surface Runoff ...........         3.436       103.580
  Final Storage ............         0.033         0.999
  Continuity Error (%) .....        -0.019
  
  
  **************************        Volume        Volume
  Flow Routing Continuity        hectare-m      10^6 ltr
  **************************     ---------     ---------
  Dry Weather Inflow .......         0.025         0.248
  Wet Weather Inflow .......         3.435        34.354
  Groundwater Inflow .......         0.000         0.000
  RDII Inflow ..............         0.000         0.000
  External Inflow ..........         0.083         0.825
  External Outflow .........         2.349        23.492
  Flooding Loss ............         1.463        14.633
  Evaporation Loss .........         0.000         0.000
  Exfiltration Loss ........         0.000         0.000
  Initial Stored Volume ....         0.243         2.431
  Final Stored Volume ......         0.042         0.415
  Continuity Error (%) .....        -1.802
  
  
  *************************
  Highest Continuity Errors
  *************************
  Node WS02006256 (-14.03%)
  Node JK-storage (-7.15%)
  Node YS02001884 (5.25%)
  Node YS02001583 (-3.92%)
  
  
  ***************************
  Time-Step Critical Elements
  ***************************
  Link YS02001793JiankangQianchi (35.43%)
  Link WS02006238WS02006235 (31.19%)
  Link WS02004404WS02004405 (7.16%)
  Link WS02003066WSF200 (6.32%)
  Link WS02006235WS02006234 (2.69%)
  
  
  ********************************
  Highest Flow Instability Indexes
  ********************************
  Link WS02006229WS02006228 (57)
  Link WS02006252WS02006251 (50)
  Link WS02006256WS02006235 (42)
  Link WS02006228WS02006109 (39)
  Link WS02006113WS02006111 (38)
  
  
  *********************************
  Most Frequent Nonconverging Nodes
  *********************************
  Node CC-1 (57.15%)
  Node CC-2 (57.15%)
  Node JK-1 (57.15%)
  Node JK-2 (57.15%)
  Node WSC (57.15%)
  
  
  *************************
  Routing Time Step Summary
  *************************
  Minimum Time Step           :     0.01 sec
  Average Time Step           :     2.39 sec
  Maximum Time Step           :     6.43 sec
  % of Time in Steady State   :     0.00
  Average Iterations per Step :     5.86
  % of Steps Not Converging   :    57.15
  Time Step Frequencies       :
     30.000 - 13.228 sec      :     0.00 %
     13.228 -  5.833 sec      :     4.00 %
      5.833 -  2.572 sec      :    33.68 %
      2.572 -  1.134 sec      :    43.53 %
      1.134 -  0.500 sec      :    18.79 %
  
  
  ***************************
  Subcatchment Runoff Summary
  ***************************
  
  ------------------------------------------------------------------------------------------------------------------------------
                            Total      Total      Total      Total     Imperv       Perv      Total       Total     Peak  Runoff
                           Precip      Runon       Evap      Infil     Runoff     Runoff     Runoff      Runoff   Runoff   Coeff
  Subcatchment                 mm         mm         mm         mm         mm         mm         mm    10^6 ltr      LPS
  ------------------------------------------------------------------------------------------------------------------------------
  sub60                    107.74       0.00       0.00       1.90      93.61      11.03     104.65        1.38   865.91   0.971
  sub61                    107.74       0.00       0.00       2.76      88.30      15.56     103.86        1.91  1205.61   0.964
  sub62                    107.74       0.00       0.00       1.27      97.84       7.36     105.19        2.88  1720.14   0.976
  sub63                    107.74       0.00       0.00       5.09      75.53      26.16     101.69        2.31  1390.90   0.944
  sub64                    107.74       0.00       0.00       2.57      90.38      13.59     103.96        2.50  1428.88   0.965
  sub65                    107.74       0.00       0.00       2.23      92.48      11.78     104.26        2.87  1601.77   0.968
  sub66                    107.74       0.00       0.00       6.32      75.42      24.93     100.34        4.68  2204.78   0.931
  sub67                    107.74       0.00       0.00       1.21      97.88       7.41     105.29        1.96  1294.17   0.977
  sub68                    107.74       0.00       0.00       2.28      91.47      12.80     104.28        2.87  1756.94   0.968
  sub69                    107.74       0.00       0.00       2.07      91.47      14.10     105.57        3.91  2128.94   0.980
  sub70                    107.74       0.00       0.00       6.91      70.94      29.72     100.66        2.91  1240.64   0.934
  sub71                    107.74       0.00       0.00       1.30      97.79       7.32     105.11        2.75  1541.45   0.976
  sub72                    107.74       0.00       0.00       1.16      98.79       6.39     105.18        1.45   757.72   0.976
  
  
  ******************
  Node Depth Summary
  ******************
  
  ---------------------------------------------------------------------------------
                                 Average  Maximum  Maximum  Time of Max    Reported
                                   Depth    Depth      HGL   Occurrence   Max Depth
  Node                 Type       Meters   Meters   Meters  days hr:min      Meters
  ---------------------------------------------------------------------------------
  WS02003060           JUNCTION     0.26     0.38     5.31     0  03:14        0.38
  WS02003066           JUNCTION     0.21     0.29     5.85     0  03:15        0.29
  WS02003067           JUNCTION     0.52     0.70     6.02     0  03:14        0.70
  WS02003069           JUNCTION     0.29     0.42     5.01     0  03:16        0.42
  WS02003072           JUNCTION     0.35     0.49     4.87     0  03:16        0.49
  WS02003073           JUNCTION     0.20     0.29     4.36     0  03:17        0.29
  WS02004401           JUNCTION     0.64     0.87     6.87     0  03:12        0.86
  WS02004402           JUNCTION     0.67     0.89     6.85     0  03:11        0.89
  WS02004403           JUNCTION     0.69     0.91     6.84     0  03:11        0.91
  WS02004404           JUNCTION     0.76     1.00     6.85     0  03:10        0.99
  WS02004405           JUNCTION     0.75     0.96     6.81     0  03:12        0.95
  WS02004406           JUNCTION     0.76     0.95     6.78     0  03:11        0.95
  WS02004407           JUNCTION     0.19     0.29     6.61     0  03:11        0.29
  WS02004409           JUNCTION     0.44     0.66     6.43     0  03:15        0.66
  WS02004410           JUNCTION     0.46     0.67     6.39     0  03:15        0.67
  WS02004411           JUNCTION     0.47     0.68     6.36     0  03:15        0.68
  WS02004412           JUNCTION     0.49     0.69     6.33     0  03:15        0.69
  WS02004413           JUNCTION     0.65     0.85     6.32     0  03:16        0.85
  WS02006109           JUNCTION     0.72     1.07     7.69     0  01:29        0.99
  WS02006110           JUNCTION     0.71     1.06     7.64     0  01:29        0.95
  WS02006111           JUNCTION     0.20     0.29     6.99     0  03:08        0.29
  WS02006112           JUNCTION     0.81     1.08     6.96     0  03:12        1.06
  WS02006113           JUNCTION     0.31     0.45     7.35     0  03:08        0.45
  WS02006115           JUNCTION     0.53     0.76     6.90     0  03:11        0.76
  WS02006116           JUNCTION     0.61     0.84     6.88     0  03:11        0.84
  WS02006228           JUNCTION     0.72     1.11     7.76     0  01:29        1.02
  WS02006229           JUNCTION     0.70     1.13     7.83     0  01:29        1.04
  WS02006230           JUNCTION     0.72     1.27     8.01     0  01:29        1.14
  WS02006231           JUNCTION     0.51     1.70     8.82     0  02:01        1.70
  WS02006232           JUNCTION     0.66     2.18     9.22     0  02:35        2.18
  WS02006234           JUNCTION     0.61     1.96     9.12     0  01:29        1.96
  WS02006235           JUNCTION     0.66     2.00     9.16     0  01:29        2.00
  WS02006238           JUNCTION     0.69     2.15     9.29     0  01:29        2.15
  WS02006239           JUNCTION     0.67     2.03     9.24     0  01:29        2.03
  WS02006240           JUNCTION     0.63     2.10     9.39     0  01:29        2.10
  WS02006242           JUNCTION     0.70     1.55     8.82     0  01:29        1.55
  WS02006243           JUNCTION     0.63     1.48     8.90     0  01:29        1.48
  WS02006245           JUNCTION     0.63     1.56     9.04     0  01:29        1.56
  WS02006247           JUNCTION     0.65     1.47     8.97     0  01:29        1.47
  WS02006248           JUNCTION     0.62     1.10     8.69     0  01:29        1.10
  WS02006249           JUNCTION     0.64     1.09     8.69     0  01:27        1.09
  WS02006251           JUNCTION     0.64     1.67     9.34     0  01:39        1.15
  WS02006252           JUNCTION     0.41     1.50     9.74     0  00:00        1.00
  WS02006256           JUNCTION     1.21     2.35     9.28     0  00:00        2.35
  WSF200               JUNCTION     0.19     0.29     5.52     0  03:13        0.29
  YS02001580           JUNCTION     0.22     1.05     9.59     0  01:44        0.81
  YS02001583           JUNCTION     0.26     1.14     9.64     0  01:44        0.85
  YS02001586           JUNCTION     0.39     1.13     9.30     0  01:44        1.13
  YS02001590           JUNCTION     0.52     1.40     9.26     0  01:44        1.38
  YS02001593           JUNCTION     0.46     1.33     9.19     0  01:44        1.28
  YS02001596           JUNCTION     0.61     1.69     9.11     0  01:44        1.67
  YS02001600           JUNCTION     0.72     1.87     9.00     0  01:44        1.87
  YS02001601           JUNCTION     0.91     2.06     8.90     0  01:43        2.06
  YS02001602           JUNCTION     0.79     1.87     8.77     0  01:48        1.87
  YS02001605           JUNCTION     0.73     1.78     8.68     0  01:50        1.78
  YS02001607           JUNCTION     0.68     1.68     8.53     0  01:50        1.68
  YS02001610           JUNCTION     0.72     1.68     8.48     0  01:49        1.68
  YS02001613           JUNCTION     0.68     1.70     8.54     0  01:50        1.70
  YS02001616           JUNCTION     0.61     1.61     8.52     0  01:58        1.61
  YS02001619           JUNCTION     0.59     1.61     8.54     0  01:50        1.61
  YS02001622           JUNCTION     0.58     1.62     8.52     0  01:50        1.62
  YS02001625           JUNCTION     0.82     1.78     8.38     0  01:49        1.78
  YS02001629           JUNCTION     0.73     1.85     8.40     0  01:50        1.85
  YS02001633           JUNCTION     0.80     2.08     8.53     0  01:50        2.08
  YS02001641           JUNCTION     0.75     1.96     8.39     0  02:01        1.95
  YS02001644           JUNCTION     0.74     1.92     8.35     0  01:52        1.92
  YS02001647           JUNCTION     0.51     1.80     8.41     0  01:54        1.78
  YS02001649           JUNCTION     0.57     2.05     8.44     0  02:33        2.05
  YS02001652           JUNCTION     0.45     2.16     8.76     0  02:33        2.16
  YS02001655           JUNCTION     0.35     1.78     8.63     0  02:21        1.75
  YS02001658           JUNCTION     0.25     1.56     8.70     0  02:01        1.55
  YS02001661           JUNCTION     0.24     1.40     8.80     0  02:01        1.40
  YS02001664           JUNCTION     0.12     0.96     8.88     0  02:01        0.95
  YS02001745           JUNCTION     0.13     0.98     8.49     0  02:01        0.97
  YS02001748           JUNCTION     0.22     1.82     8.90     0  01:54        1.38
  YS02001751           JUNCTION     0.28     2.18     9.06     0  01:54        1.54
  YS02001754           JUNCTION     0.39     2.20     8.81     0  01:54        1.78
  YS02001757           JUNCTION     0.58     2.19     8.45     0  01:54        2.08
  YS02001759           JUNCTION     0.53     2.14     8.50     0  01:55        2.14
  YS02001762           JUNCTION     0.51     2.12     8.52     0  01:55        2.12
  YS02001765           JUNCTION     0.49     2.07     8.52     0  01:55        2.07
  YS02001767           JUNCTION     0.48     1.98     8.46     0  01:55        1.98
  YS02001770           JUNCTION     0.49     1.95     8.44     0  01:54        1.95
  YS02001774           JUNCTION     0.56     2.00     8.42     0  01:59        2.00
  YS02001779           JUNCTION     0.37     1.68     8.37     0  01:50        1.68
  YS02001783           JUNCTION     0.42     1.33     7.47     0  01:50        1.27
  YS02001784           JUNCTION     0.42     1.18     7.25     0  01:50        1.14
  YS02001786           JUNCTION     0.34     0.94     6.97     0  01:50        0.88
  YS02001788           JUNCTION     0.25     0.63     6.61     0  02:00        0.63
  YS02001790           JUNCTION     0.29     0.73     6.37     0  01:59        0.73
  YS02001791           JUNCTION     0.18     0.44     5.91     0  01:58        0.44
  YS02001793           JUNCTION     0.11     0.26     5.09     0  02:00        0.26
  YS02001882           JUNCTION     0.52     1.82     8.53     0  01:50        1.73
  YS02001884           JUNCTION     0.61     1.88     8.50     0  01:50        1.82
  YS02001887           JUNCTION     0.69     1.91     8.45     0  02:01        1.91
  YS02001890           JUNCTION     0.71     1.81     8.32     0  01:49        1.81
  YS02001895           JUNCTION     0.49     1.58     8.32     0  01:50        1.57
  YS02001898           JUNCTION     0.50     1.61     8.35     0  01:55        1.61
  YS02001901           JUNCTION     0.60     1.70     8.31     0  02:21        1.70
  YS02001904           JUNCTION     0.58     1.70     8.33     0  02:21        1.70
  YS02001907           JUNCTION     0.89     1.96     8.25     0  01:49        1.96
  YS02001910           JUNCTION     0.71     2.01     8.52     0  02:03        2.01
  YS02001915           JUNCTION     0.55     2.00     8.72     0  01:50        2.00
  YS02001918           JUNCTION     0.36     1.81     8.88     0  01:50        1.74
  YS02001920           JUNCTION     0.44     2.02     9.03     0  01:50        1.84
  YS02001923           JUNCTION     0.29     1.88     9.14     0  01:50        1.62
  YS02001926           JUNCTION     0.30     1.74     9.18     0  01:50        1.46
  YS02001929           JUNCTION     0.20     1.51     9.21     0  01:50        1.24
  YS02006553           JUNCTION     0.89     2.19     8.47     0  01:50        2.19
  YS02006556           JUNCTION     0.86     2.32     8.63     0  01:50        2.32
  YS02006558           JUNCTION     0.91     2.34     8.61     0  01:50        2.34
  YS02006561           JUNCTION     0.27     1.04     7.70     0  01:50        0.93
  YS02163301           JUNCTION     0.75     1.95     8.46     0  02:01        1.95
  YS02163601           JUNCTION     0.82     2.07     8.46     0  01:55        2.07
  YS02164001           JUNCTION     0.75     2.00     8.46     0  01:55        2.00
  CC-1                 OUTFALL      0.00     0.00     0.00     0  00:00        0.00
  CC-2                 OUTFALL      0.00     0.00     0.00     0  00:00        0.00
  JK-1                 OUTFALL      0.00     0.00     0.00     0  00:00        0.00
  JK-2                 OUTFALL      0.00     0.00     0.00     0  00:00        0.00
  WSC                  OUTFALL      0.20     0.29     0.96     0  03:18        0.29
  CC-storage           STORAGE      0.45     1.37     6.87     0  02:47        1.37
  JK-storage           STORAGE      0.02     2.99     3.79     0  00:00        0.68
  
  
  *******************
  Node Inflow Summary
  *******************
  
  -------------------------------------------------------------------------------------------------
                                  Maximum  Maximum                  Lateral       Total        Flow
                                  Lateral    Total  Time of Max      Inflow      Inflow     Balance
                                   Inflow   Inflow   Occurrence      Volume      Volume       Error
  Node                 Type           LPS      LPS  days hr:min    10^6 ltr    10^6 ltr     Percent
  -------------------------------------------------------------------------------------------------
  WS02003060           JUNCTION     16.53   540.91     0  03:15       0.471        6.02       0.038
  WS02003066           JUNCTION      0.00   523.92     0  03:15           0        5.56       0.027
  WS02003067           JUNCTION      0.00   523.89     0  03:16           0        5.56       0.076
  WS02003069           JUNCTION      0.32   540.88     0  03:16     0.00912        6.03       0.072
  WS02003072           JUNCTION      0.00   540.73     0  03:16           0        6.03       0.128
  WS02003073           JUNCTION      1.82   542.63     0  03:17      0.0519        6.07       0.098
  WS02004401           JUNCTION      0.00   533.71     0  03:08           0        5.66       0.188
  WS02004402           JUNCTION      0.00   531.65     0  03:10           0        5.65       0.189
  WS02004403           JUNCTION      0.00   532.94     0  03:10           0        5.64       0.186
  WS02004404           JUNCTION      0.16   546.61     0  03:10     0.00462        5.63       0.099
  WS02004405           JUNCTION      0.04   592.33     0  03:11     0.00109        5.63       0.168
  WS02004406           JUNCTION      0.00   531.36     0  03:10           0        5.62       0.382
  WS02004407           JUNCTION      0.00   527.96     0  03:11           0         5.6       0.022
  WS02004409           JUNCTION      0.00   527.32     0  03:11           0         5.6       0.052
  WS02004410           JUNCTION      0.00   526.65     0  03:12           0        5.59       0.086
  WS02004411           JUNCTION      0.00   525.09     0  03:12           0        5.59       0.106
  WS02004412           JUNCTION      0.00   524.28     0  03:14           0        5.58       0.140
  WS02004413           JUNCTION      0.00   524.06     0  03:16           0        5.57       0.256
  WS02006109           JUNCTION      1.23   553.84     0  01:29      0.0351        5.71       0.138
  WS02006110           JUNCTION      0.00   553.83     0  01:29           0         5.7       0.128
  WS02006111           JUNCTION      0.00   559.32     0  03:08           0        5.69       0.025
  WS02006112           JUNCTION      0.00   542.92     0  03:09           0        5.69       0.367
  WS02006113           JUNCTION      0.00   570.38     0  01:29           0        5.69       0.032
  WS02006115           JUNCTION      0.00   545.22     0  03:09           0        5.67       0.131
  WS02006116           JUNCTION      0.00   536.50     0  03:10           0        5.66       0.007
  WS02006228           JUNCTION      0.00   552.60     0  01:29           0        5.67       0.050
  WS02006229           JUNCTION      0.00   551.82     0  01:29           0        5.68       0.126
  WS02006230           JUNCTION     10.28   573.13     0  03:08       0.293        5.69       0.094
  WS02006231           JUNCTION      0.00   585.96     0  01:29           0        5.39      -0.096
  WS02006232           JUNCTION      0.00   584.76     0  01:28           0         5.4       0.253
  WS02006234           JUNCTION      0.00   580.78     0  01:28           0        5.38      -0.318
  WS02006235           JUNCTION      0.00   593.82     0  01:25           0        5.54       0.022
  WS02006238           JUNCTION      0.00   426.71     0  03:22           0        4.34      -0.156
  WS02006239           JUNCTION      0.00   422.16     0  03:29           0        4.21      -0.276
  WS02006240           JUNCTION      0.00   426.29     0  03:45           0        4.16      -0.237
  WS02006242           JUNCTION      0.00   427.92     0  03:45           0        4.15      -0.050
  WS02006243           JUNCTION      0.00   428.85     0  03:45           0        4.15       0.003
  WS02006245           JUNCTION      0.00   486.40     0  01:36           0        4.18       0.649
  WS02006247           JUNCTION      0.00   482.41     0  01:33           0        4.18      -0.055
  WS02006248           JUNCTION      0.00   546.07     0  01:33           0        4.19       0.118
  WS02006249           JUNCTION      0.00   529.81     0  01:33           0        4.37       0.522
  WS02006251           JUNCTION      0.08   433.79     0  01:30     0.00219        4.38       0.031
  WS02006252           JUNCTION      0.00   400.00     0  00:00           0        4.37      -0.134
  WS02006256           JUNCTION      0.00   300.00     0  00:00           0        1.76     -12.307
  WSF200               JUNCTION      0.00   523.95     0  03:15           0        5.55       0.009
  YS02001580           JUNCTION      0.00    73.54     0  01:44           0     0.00405       1.457
  YS02001583           JUNCTION      0.00   118.27     0  01:43           0      0.0156      -3.774
  YS02001586           JUNCTION   1240.64  1240.65     0  02:04        2.91        2.92       0.037
  YS02001590           JUNCTION      0.00   319.61     0  02:35           0         1.8      -0.029
  YS02001593           JUNCTION      0.00   318.81     0  02:35           0         1.8       0.013
  YS02001596           JUNCTION      0.00   317.90     0  02:04           0         1.8       0.004
  YS02001600           JUNCTION      0.00   317.92     0  02:37           0         1.8       0.019
  YS02001601           JUNCTION   2128.94  2446.44     0  02:02        3.91        5.71       0.016
  YS02001602           JUNCTION      0.00   494.83     0  01:43           0        2.89       0.019
  YS02001605           JUNCTION      0.00   495.54     0  01:43           0        2.72       0.022
  YS02001607           JUNCTION      0.00   496.29     0  01:43           0        2.72       0.075
  YS02001610           JUNCTION      0.00   954.23     0  02:06           0        3.45       0.074
  YS02001613           JUNCTION      0.00   618.34     0  02:05           0        2.68       0.052
  YS02001616           JUNCTION      0.00   618.15     0  02:06           0        2.69       0.017
  YS02001619           JUNCTION   2204.78  2204.78     0  02:03        4.68        6.63       0.001
  YS02001622           JUNCTION      0.00  1053.69     0  02:08           0        5.66       0.003
  YS02001625           JUNCTION      0.00  1505.25     0  02:09           0        6.13       0.152
  YS02001629           JUNCTION      0.00   931.91     0  02:35           0        4.68       0.022
  YS02001633           JUNCTION   1601.97  1601.97     0  02:02        2.88        6.89       0.052
  YS02001641           JUNCTION      0.00  1344.74     0  01:49           0        6.23       0.047
  YS02001644           JUNCTION   1428.92  2377.87     0  02:02         2.5        8.75       0.039
  YS02001647           JUNCTION      0.00  1729.52     0  01:49           0        7.44       0.005
  YS02001649           JUNCTION      0.00  1979.82     0  01:50           0        9.72       0.005
  YS02001652           JUNCTION      0.00  1400.41     0  02:01           0        2.31      -0.064
  YS02001655           JUNCTION      0.15  1400.53     0  02:01     0.00439        2.31      -0.006
  YS02001658           JUNCTION      0.00  1400.33     0  02:01           0        2.31       0.003
  YS02001661           JUNCTION      0.00  1399.91     0  02:01           0        2.31       0.013
  YS02001664           JUNCTION   1390.90  1390.90     0  02:02        2.31        2.31      -0.005
  YS02001745           JUNCTION    865.92   865.92     0  02:01        1.37        1.37       0.076
  YS02001748           JUNCTION      0.04   882.27     0  02:01     0.00128        1.38      -0.091
  YS02001751           JUNCTION      0.01   882.15     0  02:01    0.000313        1.38       0.042
  YS02001754           JUNCTION      0.26   883.08     0  02:01     0.00741        1.39      -0.095
  YS02001757           JUNCTION      0.00  3585.06     0  02:01           0        15.2       0.033
  YS02001759           JUNCTION   1205.65  1530.50     0  02:02        1.91        4.11      -0.004
  YS02001762           JUNCTION      0.00   827.08     0  02:12           0        2.21       0.002
  YS02001765           JUNCTION      0.00   826.61     0  02:12           0        2.21       0.006
  YS02001767           JUNCTION      0.54   826.78     0  02:12      0.0152        2.21       0.007
  YS02001770           JUNCTION   1720.29  1720.29     0  02:02        2.89        2.93      -0.006
  YS02001774           JUNCTION      0.00   851.56     0  02:03           0       0.634       0.209
  YS02001779           JUNCTION      0.01   851.40     0  02:04    0.000142       0.588      -0.038
  YS02001783           JUNCTION      0.00  1177.63     0  02:01           0        5.54       0.006
  YS02001784           JUNCTION      1.06  1178.78     0  02:01      0.0302        5.57       0.010
  YS02001786           JUNCTION      0.06  1179.02     0  02:01      0.0016        5.57       0.013
  YS02001788           JUNCTION      0.07  1180.41     0  02:01     0.00202        5.57       0.005
  YS02001790           JUNCTION      0.15  1197.06     0  02:01     0.00442        5.57      -0.004
  YS02001791           JUNCTION      0.00  1301.94     0  02:00           0        5.57      -0.001
  YS02001793           JUNCTION      0.00  1263.08     0  02:02           0        5.57      -0.000
  YS02001882           JUNCTION      0.00    33.31     0  01:47           0      0.0136       5.242
  YS02001884           JUNCTION      0.00    50.18     0  01:50           0      0.0496       5.541
  YS02001887           JUNCTION   1294.62  1296.47     0  02:01        1.97           2       0.228
  YS02001890           JUNCTION      0.00  1297.56     0  02:01           0        1.96       0.267
  YS02001895           JUNCTION      0.00   517.75     0  02:02           0        1.58       0.116
  YS02001898           JUNCTION      0.00   518.03     0  02:07           0        1.58       0.019
  YS02001901           JUNCTION      0.00   517.60     0  02:02           0        1.58       0.221
  YS02001904           JUNCTION      0.00   517.80     0  02:02           0        1.59       0.188
  YS02001907           JUNCTION      0.00  3094.19     0  02:02           0        5.98       0.303
  YS02001910           JUNCTION      0.00  1992.89     0  02:04           0        4.21       0.170
  YS02001915           JUNCTION   1541.47  2298.15     0  02:02        2.75         4.3       0.039
  YS02001918           JUNCTION      0.00   761.06     0  02:02           0        1.57       0.009
  YS02001920           JUNCTION      2.87   761.06     0  02:02      0.0818        1.56       0.070
  YS02001923           JUNCTION      0.04   757.94     0  02:02     0.00107        1.46      -0.010
  YS02001926           JUNCTION      0.05   757.96     0  02:03     0.00149        1.45       0.029
  YS02001929           JUNCTION    757.72   757.72     0  02:03        1.45        1.45      -0.015
  YS02006553           JUNCTION      0.00   794.06     0  02:27           0        3.08       0.386
  YS02006556           JUNCTION      0.00   793.67     0  02:27           0         3.1       0.265
  YS02006558           JUNCTION   1757.82  1757.82     0  02:02        2.89        5.77       0.058
  YS02006561           JUNCTION      0.00  1177.75     0  02:01           0        5.54      -0.001
  YS02163301           JUNCTION      0.00   935.31     0  02:35           0        4.68       0.038
  YS02163601           JUNCTION      0.11  1346.33     0  01:49     0.00313        6.22       0.084
  YS02164001           JUNCTION      0.00  1345.91     0  01:49           0        6.22       0.042
  CC-1                 OUTFALL       0.00   683.00     0  00:00           0        6.52       0.000
  CC-2                 OUTFALL       0.00   683.00     0  00:00           0        6.52       0.000
  JK-1                 OUTFALL       0.00  1000.00     0  00:00           0         2.2       0.000
  JK-2                 OUTFALL       0.00  1000.00     0  00:00           0         2.2       0.000
  WSC                  OUTFALL       0.00   542.64     0  03:18           0        6.07       0.000
  CC-storage           STORAGE       0.00  3584.96     0  02:01           0        17.4      -0.305
  JK-storage           STORAGE       0.00  1315.15     0  02:00           0        5.72      -6.669
  
  
  **********************
  Node Surcharge Summary
  **********************
  
  Surcharging occurs when water rises above the top of the highest conduit.
  ---------------------------------------------------------------------
                                               Max. Height   Min. Depth
                                   Hours       Above Crown    Below Rim
  Node                 Type      Surcharged         Meters       Meters
  ---------------------------------------------------------------------
  WS02006109           JUNCTION        2.51          0.247        1.573
  WS02006110           JUNCTION        0.06          0.146        1.704
  WS02006112           JUNCTION        1.78          0.076        1.604
  WS02006228           JUNCTION        2.50          0.277        1.923
  WS02006229           JUNCTION        2.53          0.333        2.117
  WS02006230           JUNCTION        0.04          0.190        1.380
  WS02006231           JUNCTION        1.39          0.986        0.544
  WS02006232           JUNCTION        2.61          1.480        0.000
  WS02006234           JUNCTION        2.12          1.240        0.000
  WS02006235           JUNCTION        2.47          1.290        0.000
  WS02006238           JUNCTION        2.57          1.430        0.000
  WS02006239           JUNCTION        2.50          1.290        0.000
  WS02006240           JUNCTION        2.50          1.390        0.000
  WS02006242           JUNCTION        2.61          0.820        0.000
  WS02006243           JUNCTION        2.49          0.770        0.000
  WS02006245           JUNCTION        2.47          0.850        0.000
  WS02006247           JUNCTION        2.50          0.760        0.000
  WS02006248           JUNCTION        2.44          0.380        0.000
  WS02006249           JUNCTION        2.48          0.390        0.000
  WS02006251           JUNCTION        1.84          0.641        0.539
  WS02006252           JUNCTION        3.03          1.100        0.000
  WS02006256           JUNCTION        7.01          2.050        0.000
  YS02001580           JUNCTION        1.04          0.450        0.000
  YS02001583           JUNCTION        1.04          0.500        0.000
  YS02001586           JUNCTION        1.17          0.510        0.000
  YS02001590           JUNCTION        1.27          0.750        0.000
  YS02001593           JUNCTION        1.27          0.706        0.134
  YS02001596           JUNCTION        1.41          0.961        0.109
  YS02001600           JUNCTION        1.54          1.190        0.000
  YS02001601           JUNCTION        1.83          1.440        0.000
  YS02001602           JUNCTION        1.74          1.270        0.000
  YS02001605           JUNCTION        1.69          1.180        0.000
  YS02001607           JUNCTION        1.20          0.680        0.000
  YS02001610           JUNCTION        1.23          0.680        0.000
  YS02001613           JUNCTION        1.19          0.700        0.000
  YS02001616           JUNCTION        1.13          0.610        0.000
  YS02001619           JUNCTION        1.11          0.610        0.000
  YS02001622           JUNCTION        1.10          0.620        0.000
  YS02001625           JUNCTION        1.35          0.780        0.000
  YS02001629           JUNCTION        0.99          0.470        0.000
  YS02001633           JUNCTION        1.36          1.060        0.000
  YS02001641           JUNCTION        1.23          0.956        0.144
  YS02001644           JUNCTION        1.18          0.920        0.000
  YS02001647           JUNCTION        0.84          0.797        0.103
  YS02001649           JUNCTION        0.98          1.050        0.000
  YS02001652           JUNCTION        0.70          1.130        0.000
  YS02001655           JUNCTION        0.50          0.781        0.419
  YS02001658           JUNCTION        0.36          0.561        0.739
  YS02001661           JUNCTION        0.17          0.330        1.060
  YS02001748           JUNCTION        0.24          0.740        0.450
  YS02001751           JUNCTION        0.38          1.177        0.023
  YS02001754           JUNCTION        0.52          1.150        0.000
  YS02001757           JUNCTION        1.03          1.186        0.024
  YS02001759           JUNCTION        0.88          1.137        0.073
  YS02001762           JUNCTION        0.84          1.120        0.030
  YS02001765           JUNCTION        0.79          1.069        0.031
  YS02001767           JUNCTION        0.74          0.975        0.055
  YS02001770           JUNCTION        0.71          0.920        0.000
  YS02001774           JUNCTION        0.82          1.003        0.047
  YS02001779           JUNCTION        0.54          0.680        0.000
  YS02001783           JUNCTION        0.87          0.531        1.069
  YS02001784           JUNCTION        0.83          0.381        1.109
  YS02001786           JUNCTION        0.69          0.137        1.293
  YS02001882           JUNCTION        0.79          0.819        0.011
  YS02001884           JUNCTION        0.80          0.819        0.051
  YS02001887           JUNCTION        0.85          0.860        0.090
  YS02001890           JUNCTION        0.87          0.760        0.000
  YS02001895           JUNCTION        0.78          0.575        0.175
  YS02001898           JUNCTION        0.77          0.581        0.159
  YS02001901           JUNCTION        0.83          0.703        0.167
  YS02001904           JUNCTION        0.82          0.703        0.147
  YS02001907           JUNCTION        1.18          0.950        0.000
  YS02001910           JUNCTION        0.91          1.014        0.086
  YS02001915           JUNCTION        0.79          1.000        0.000
  YS02001918           JUNCTION        0.68          0.810        0.000
  YS02001920           JUNCTION        0.69          1.018        0.122
  YS02001923           JUNCTION        0.27          0.670        0.150
  YS02001926           JUNCTION        0.32          0.739        0.161
  YS02001929           JUNCTION        0.16          0.513        0.267
  YS02006553           JUNCTION        1.22          1.190        0.000
  YS02006556           JUNCTION        1.04          1.281        0.069
  YS02006558           JUNCTION        1.02          1.243        0.157
  YS02006561           JUNCTION        0.63          0.235        0.915
  YS02163301           JUNCTION        1.34          0.948        0.082
  YS02163601           JUNCTION        1.39          1.067        0.013
  YS02164001           JUNCTION        1.25          1.000        0.100
  
  
  *********************
  Node Flooding Summary
  *********************
  
  Flooding refers to all water that overflows a node, whether it ponds or not.
  --------------------------------------------------------------------------
                                                             Total   Maximum
                                 Maximum   Time of Max       Flood    Ponded
                        Hours       Rate    Occurrence      Volume     Depth
  Node                 Flooded       LPS   days hr:min    10^6 ltr    Meters
  --------------------------------------------------------------------------
  WS02006232              0.01      0.85      0  02:35       0.000     0.000
  WS02006234              0.01     11.27      0  01:29       0.000     0.000
  WS02006235              0.01     24.58      0  01:29       0.000     0.000
  WS02006238              0.01     23.46      0  01:29       0.000     0.000
  WS02006239              0.01      7.86      0  01:29       0.000     0.000
  WS02006240              0.01     14.44      0  02:35       0.000     0.000
  WS02006242              0.02     70.75      0  01:33       0.001     0.000
  WS02006243              0.01     99.07      0  01:36       0.000     0.000
  WS02006245              0.01      3.12      0  01:50       0.000     0.000
  WS02006247              0.01    207.81      0  01:33       0.000     0.000
  WS02006248              0.48    255.30      0  01:33       0.013     0.000
  WS02006249              1.68    190.11      0  01:33       0.155     0.000
  WS02006252              0.01    264.56      0  01:30       0.001     0.000
  WS02006256              1.60    293.19      0  00:00       0.778     0.000
  YS02001583              0.01     52.08      0  01:44       0.000     0.000
  YS02001586              0.84    923.18      0  02:03       1.106     0.000
  YS02001590              0.01      6.33      0  01:44       0.000     0.000
  YS02001600              0.01      1.65      0  01:44       0.000     0.000
  YS02001601              1.07   2048.54      0  02:02       2.815     0.000
  YS02001602              0.83     61.95      0  02:05       0.171     0.000
  YS02001605              0.01      1.26      0  01:50       0.000     0.000
  YS02001607              0.01      0.35      0  02:21       0.000     0.000
  YS02001610              0.75    954.07      0  02:06       1.506     0.000
  YS02001613              0.01      0.85      0  02:35       0.000     0.000
  YS02001616              0.18      1.08      0  02:35       0.000     0.000
  YS02001619              0.20    543.85      0  02:03       0.224     0.000
  YS02001622              0.01      0.87      0  02:35       0.000     0.000
  YS02001625              0.66   1505.13      0  02:09       2.111     0.000
  YS02001629              0.30    410.76      0  02:02       0.191     0.000
  YS02001633              0.01      0.60      0  01:55       0.000     0.000
  YS02001644              0.34   2377.51      0  02:02       1.330     0.000
  YS02001649              0.01     27.92      0  02:33       0.000     0.000
  YS02001652              0.01     54.81      0  02:33       0.000     0.000
  YS02001754              0.01     18.49      0  01:54       0.000     0.000
  YS02001770              0.12    545.76      0  02:01       0.127     0.000
  YS02001779              0.30    851.26      0  02:05       0.565     0.000
  YS02001890              0.34    780.20      0  02:01       0.377     0.000
  YS02001907              0.60   3093.75      0  02:02       3.089     0.000
  YS02001915              0.11    305.59      0  02:02       0.070     0.000
  YS02001918              0.01     21.29      0  01:50       0.000     0.000
  YS02006553              0.01      0.22      0  01:50       0.000     0.000
  
  
  **********************
  Storage Volume Summary
  **********************
  
  ------------------------------------------------------------------------------------------------
                         Average    Avg   Evap  Exfil     Maximum    Max    Time of Max    Maximum
                          Volume   Pcnt   Pcnt   Pcnt      Volume   Pcnt     Occurrence    Outflow
  Storage Unit           1000 m³   Full   Loss   Loss     1000 m³   Full    days hr:min        LPS
  ------------------------------------------------------------------------------------------------
  CC-storage               1.245   19.4    0.0    0.0       3.817   59.5       0  02:47    1783.53
  JK-storage               0.001    0.4    0.0    0.0       0.150   51.6       0  00:00    2300.00
  
  
  ***********************
  Outfall Loading Summary
  ***********************
  
  -----------------------------------------------------------
                         Flow       Avg       Max       Total
                         Freq      Flow      Flow      Volume
  Outfall Node           Pcnt       LPS       LPS    10^6 ltr
  -----------------------------------------------------------
  CC-1                  56.33    683.00    683.00       6.516
  CC-2                  56.33    683.00    683.00       6.516
  JK-1                  15.53    999.14   1000.00       2.198
  JK-2                  15.53    999.14   1000.00       2.198
  WSC                   99.95    301.39    542.64       6.065
  -----------------------------------------------------------
  System                48.73   3665.67   3898.86      23.492
  
  
  ********************
  Link Flow Summary
  ********************
  
  -----------------------------------------------------------------------------
                                 Maximum  Time of Max   Maximum    Max/    Max/
                                  |Flow|   Occurrence   |Veloc|    Full    Full
  Link                 Type          LPS  days hr:min     m/sec    Flow   Depth
  -----------------------------------------------------------------------------
  1                    CONDUIT    542.64     0  03:18      2.81    0.19    0.29
  WS02003060WS02003069 CONDUIT    540.56     0  03:16      1.63    0.21    0.33
  WS02003066WSF200     CONDUIT    523.95     0  03:15      2.84    0.09    0.22
  WS02003067WS02003066 CONDUIT    523.92     0  03:15      1.19    0.17    0.41
  WS02003069WS02003072 CONDUIT    540.73     0  03:16      1.36    0.26    0.38
  WS02003072WS02003073 CONDUIT    540.81     0  03:17      1.42    1.17    0.37
  WS02004401WS02004402 CONDUIT    531.65     0  03:10      1.22    0.64    0.88
  WS02004402WS02004403 CONDUIT    532.94     0  03:10      1.24    0.77    0.90
  WS02004403WS02004404 CONDUIT    546.45     0  03:10      1.24    0.39    0.95
  WS02004404WS02004405 CONDUIT    592.29     0  03:11      1.45    5.80    0.97
  WS02004405WS02004406 CONDUIT    531.36     0  03:10      1.46    1.05    0.95
  WS02004406WS02004407 CONDUIT    527.96     0  03:11      1.03    0.24    0.62
  WS02004407WS02004409 CONDUIT    527.32     0  03:11      1.59    0.19    0.48
  WS02004409WS02004410 CONDUIT    526.65     0  03:12      1.06    0.68    0.67
  WS02004410WS02004411 CONDUIT    525.09     0  03:12      1.12    0.72    0.68
  WS02004411WS02004412 CONDUIT    524.28     0  03:14      1.22    0.74    0.69
  WS02004412WS02004413 CONDUIT    524.06     0  03:16      1.22    0.35    0.77
  WS02004413WS02003067 CONDUIT    523.89     0  03:16      1.09    0.22    0.59
  WS02006109WS02006110 CONDUIT    553.83     0  01:29      1.10    1.06    1.00
  WS02006110WS02006113 CONDUIT    570.38     0  01:29      1.38    0.52    0.78
  WS02006111WS02006112 CONDUIT    542.92     0  03:09      1.95    0.26    0.67
  WS02006112WS02006115 CONDUIT    545.22     0  03:09      0.88    0.32    0.88
  WS02006113WS02006111 CONDUIT    559.32     0  03:08      2.46    0.67    0.46
  WS02006115WS02006116 CONDUIT    536.50     0  03:10      1.29    0.69    0.77
  WS02006116WS02004401 CONDUIT    533.71     0  03:08      1.21    0.74    0.85
  WS02006228WS02006109 CONDUIT    552.61     0  01:29      1.10    2.41    1.00
  WS02006229WS02006228 CONDUIT    552.60     0  01:29      1.12    1.83    1.00
  WS02006230WS02006229 CONDUIT    551.82     0  01:29      1.43   12.28    1.00
  WS02006231WS02006230 CONDUIT    562.85     0  03:08      1.54    8.54    1.00
  WS02006232WS02006231 CONDUIT    585.96     0  01:29      1.54    1.23    1.00
  WS02006234WS02006232 CONDUIT    584.76     0  01:28      1.52    1.18    1.00
  WS02006235WS02006234 CONDUIT    580.78     0  01:28      1.51    6.13    1.00
  WS02006238WS02006235 CONDUIT    459.60     0  03:29      1.45    1.03    1.00
  WS02006239WS02006238 CONDUIT    426.71     0  03:22      1.11    1.37    1.00
  WS02006240WS02006239 CONDUIT    422.16     0  03:29      1.25    1.33    1.00
  WS02006242WS02006240 CONDUIT    426.29     0  03:45      1.17    1.69    1.00
  WS02006243WS02006242 CONDUIT    427.92     0  03:45      1.42    0.91    1.00
  WS02006245WS02006243 CONDUIT    428.85     0  03:45      1.44    1.27    1.00
  WS02006247WS02006245 CONDUIT    486.40     0  01:36      1.43    3.86    1.00
  WS02006248WS02006247 CONDUIT    482.41     0  01:33      1.46    1.05    1.00
  WS02006249WS02006248 CONDUIT    546.07     0  01:33      1.44    2.99    1.00
  WS02006251WS02006249 CONDUIT    529.81     0  01:33      1.99    1.53    1.00
  WS02006252WS02006251 CONDUIT    412.07     0  01:31     16.64    1.51    1.00
  WS02006256WS02006235 CONDUIT    288.91     0  00:00      4.23    3.06    1.00
  WSF200WS02003060     CONDUIT    524.38     0  03:15      2.05    0.12    0.28
  YS02001580YS02001583 CONDUIT     73.54     0  01:44      0.52    0.28    1.00
  YS02001583YS02001586 CONDUIT    118.27     0  01:43      0.50    0.18    1.00
  YS02001586YS02001590 CONDUIT    319.61     0  02:35      1.25    0.56    1.00
  YS02001590YS02001593 CONDUIT    318.81     0  02:35      1.13    2.00    1.00
  YS02001593YS02001596 CONDUIT    317.90     0  02:04      1.77    0.50    1.00
  YS02001596YS02001600 CONDUIT    317.92     0  02:37      1.28    0.62    1.00
  YS02001600YS02001601 CONDUIT    318.12     0  02:35      1.13    0.55    1.00
  YS02001601YS02001602 CONDUIT    494.83     0  01:43      1.75    1.79    1.00
  YS02001602YS02001605 CONDUIT    495.54     0  01:43      1.75   10.49    1.00
  YS02001605YS02001607 CONDUIT    496.29     0  01:43      1.76    2.72    1.00
  YS02001607YS02001610 CONDUIT    497.93     0  01:43      0.63    0.47    1.00
  YS02001610YS02001613 CONDUIT    618.13     0  02:06      0.79    0.71    1.00
  YS02001613YS02001616 CONDUIT    618.34     0  02:05      0.79    0.53    1.00
  YS02001616YS02001619 CONDUIT    618.15     0  02:06      0.79    1.07    1.00
  YS02001619YS02001622 CONDUIT   1053.69     0  02:08      1.34    1.55    1.00
  YS02001622YS02001625 CONDUIT   1053.52     0  02:06      1.34    0.56    1.00
  YS02001625YS02001629 CONDUIT    931.91     0  02:35      1.19    0.44    1.00
  YS02001629YS02163301 CONDUIT    935.31     0  02:35      1.19    1.15    1.00
  YS02001633YS02163601 CONDUIT   1346.22     0  01:49      1.71    1.41    1.00
  YS02001641YS02001644 CONDUIT   1345.29     0  01:49      1.71    4.35    1.00
  YS02001644YS02001647 CONDUIT   1729.52     0  01:49      2.21    1.02    1.00
  YS02001647YS02001649 CONDUIT   1739.29     0  01:49      2.28    0.92    1.00
  YS02001649YS02001757 CONDUIT   1980.06     0  01:50      2.52    1.20    1.00
  YS02001652YS02001649 CONDUIT   1400.36     0  02:01      1.78    0.69    1.00
  YS02001655YS02001652 CONDUIT   1400.41     0  02:01      1.78    0.68    1.00
  YS02001658YS02001655 CONDUIT   1400.37     0  02:01      1.80    0.59    1.00
  YS02001661YS02001658 CONDUIT   1400.33     0  02:01      2.25    0.55    1.00
  YS02001664YS02001661 CONDUIT   1399.91     0  02:01      2.21    0.44    0.98
  YS02001745YS02001748 CONDUIT    882.22     0  02:01      2.11    0.34    0.99
  YS02001748YS02001751 CONDUIT    882.14     0  02:01      1.62    0.45    1.00
  YS02001751YS02001754 CONDUIT    882.82     0  02:01      1.34    0.43    1.00
  YS02001754YS02001757 CONDUIT    883.14     0  02:01      1.12    0.36    1.00
  YS02001757CaochengTiaoxuchi CONDUIT   3584.96     0  02:01      6.93    1.55    1.00
  YS02001759YS02001757 CONDUIT   1530.51     0  02:02      1.95    1.09    1.00
  YS02001762YS02001759 CONDUIT    827.77     0  02:12      1.05    0.95    1.00
  YS02001765YS02001762 CONDUIT    827.08     0  02:12      1.05    0.78    1.00
  YS02001767YS02001765 CONDUIT    826.61     0  02:12      1.05    1.04    1.00
  YS02001770YS02001767 CONDUIT    826.24     0  02:12      1.05    3.27    1.00
  YS02001774YS02001770 CONDUIT    851.56     0  02:03      1.08    0.54    1.00
  YS02001779YS02001774 CONDUIT    851.39     0  02:04      1.08    0.43    1.00
  YS02001783YS02001784 CONDUIT   1177.72     0  02:01      2.34    1.62    1.00
  YS02001784YS02001785 CONDUIT   1178.96     0  02:01      2.35    2.74    1.00
  YS02001786YS02001788 CONDUIT   1180.34     0  02:01      2.50    2.27    0.89
  YS02001788YS02001790 CONDUIT   1196.90     0  02:01      2.75    0.88    0.85
  YS02001790YS02001791 CONDUIT   1301.94     0  02:00      3.44    1.42    0.71
  YS02001791YS02001793 CONDUIT   1263.08     0  02:02      6.42    0.54    0.43
  YS02001793JiankangQianchi CONDUIT   1315.15     0  02:00     24.41    0.10    0.50
  YS02001882YS02001884 CONDUIT     33.31     0  01:47      0.18    0.04    1.00
  YS02001884YS02001887 CONDUIT     50.18     0  01:50      0.14    0.07    1.00
  YS02001887YS02001890 CONDUIT   1297.56     0  02:01      1.65    2.22    1.00
  YS02001890YS02001895 CONDUIT    517.75     0  02:02      0.66    0.24    1.00
  YS02001895YS02001898 CONDUIT    518.03     0  02:07      0.66    0.90    1.00
  YS02001898YS02001901 CONDUIT    517.60     0  02:02      0.66    0.33    1.00
  YS02001901YS02001904 CONDUIT    517.80     0  02:02      0.66    0.80    1.00
  YS02001904YS02001907 CONDUIT    517.79     0  02:07      0.66    0.18    1.00
  YS02001907YS02006553 CONDUIT    794.06     0  02:27      0.88    0.93    1.00
  YS02001910YS02001907 CONDUIT   1992.82     0  02:03      2.54    1.12    1.00
  YS02001915YS02001910 CONDUIT   1992.89     0  02:04      2.54    0.99    1.00
  YS02001918YS02001915 CONDUIT    760.99     0  02:02      0.97    0.42    1.00
  YS02001920YS02001918 CONDUIT    761.06     0  02:02      0.97    0.74    1.00
  YS02001923YS02001920 CONDUIT    758.19     0  02:02      0.97    0.34    1.00
  YS02001926YS02001923 CONDUIT    757.90     0  02:02      0.96    1.08    1.00
  YS02001929YS02001926 CONDUIT    757.91     0  02:03      1.07    0.36    1.00
  YS02006553YS02006556 CONDUIT    793.67     0  02:27      1.01    0.68    1.00
  YS02006556YS02006558 CONDUIT    794.64     0  02:27      1.01    0.63    1.00
  YS02006558YS02006561 CONDUIT   1177.75     0  02:01      4.17    2.60    1.00
  YS02006561YS02001783 CONDUIT   1177.63     0  02:01      2.34    0.61    1.00
  YS02163301YS02001633 CONDUIT    926.08     0  02:35      1.18    0.87    1.00
  YS02163601YS02164001 CONDUIT   1345.91     0  01:49      1.71    1.19    1.00
  YS02164001YS02001641 CONDUIT   1344.74     0  01:49      1.71    1.84    1.00
  CC-R1                PUMP       683.00     0  00:00              1.00
  CC-R2                PUMP       683.00     0  00:00              1.00
  CC-S1                PUMP       200.00     0  00:00              1.00
  CC-S2                PUMP       200.00     0  00:00              1.00
  JK-R1                PUMP      1000.00     0  00:00              1.00
  JK-R2                PUMP      1000.00     0  00:00              1.00
  JK-S                 PUMP       300.00     0  00:00              1.00
  
  
  ***************************
  Flow Classification Summary
  ***************************
  
  -------------------------------------------------------------------------------------
                      Adjusted    ---------- Fraction of Time in Flow Class ---------- 
                       /Actual         Up    Down  Sub   Sup   Up    Down  Norm  Inlet 
  Conduit               Length    Dry  Dry   Dry   Crit  Crit  Crit  Crit  Ltd   Ctrl  
  -------------------------------------------------------------------------------------
  1                       1.00   0.00  0.00  0.00  0.00  1.00  0.00  0.00  0.42  0.00
  WS02003060WS02003069    1.00   0.00  0.00  0.00  0.98  0.02  0.00  0.00  0.67  0.00
  WS02003066WSF200        1.00   0.05  0.00  0.00  0.00  0.95  0.00  0.00  0.87  0.00
  WS02003067WS02003066    1.00   0.05  0.00  0.00  0.95  0.00  0.00  0.00  0.00  0.00
  WS02003069WS02003072    1.00   0.00  0.00  0.00  0.99  0.01  0.00  0.00  0.68  0.00
  WS02003072WS02003073    1.00   0.00  0.00  0.00  0.00  0.00  0.00  1.00  0.00  0.00
  WS02004401WS02004402    1.00   0.02  0.00  0.00  0.98  0.00  0.00  0.00  0.00  0.00
  WS02004402WS02004403    1.00   0.02  0.00  0.00  0.98  0.00  0.00  0.00  0.00  0.00
  WS02004403WS02004404    1.00   0.00  0.03  0.00  0.97  0.00  0.00  0.00  0.00  0.00
  WS02004404WS02004405    1.00   0.00  0.00  0.00  1.00  0.00  0.00  0.00  0.02  0.00
  WS02004405WS02004406    1.00   0.00  0.00  0.00  1.00  0.00  0.00  0.00  0.00  0.00
  WS02004406WS02004407    1.00   0.00  0.03  0.00  0.97  0.00  0.00  0.00  0.00  0.00
  WS02004407WS02004409    1.00   0.03  0.00  0.00  0.95  0.01  0.00  0.00  0.95  0.00
  WS02004409WS02004410    1.00   0.03  0.00  0.00  0.96  0.00  0.00  0.00  0.00  0.00
  WS02004410WS02004411    1.00   0.04  0.00  0.00  0.96  0.00  0.00  0.00  0.00  0.00
  WS02004411WS02004412    1.00   0.04  0.00  0.00  0.96  0.00  0.00  0.00  0.00  0.00
  WS02004412WS02004413    1.00   0.04  0.00  0.00  0.96  0.00  0.00  0.00  0.00  0.00
  WS02004413WS02003067    1.00   0.04  0.01  0.00  0.00  0.00  0.95  0.00  0.00  0.00
  WS02006109WS02006110    1.00   0.00  0.01  0.00  0.98  0.00  0.01  0.00  0.00  0.00
  WS02006110WS02006113    1.00   0.01  0.01  0.00  0.98  0.00  0.00  0.00  0.00  0.00
  WS02006111WS02006112    1.00   0.02  0.00  0.00  0.98  0.00  0.00  0.00  0.98  0.00
  WS02006112WS02006115    1.00   0.02  0.00  0.00  0.97  0.00  0.00  0.00  0.00  0.00
  WS02006113WS02006111    1.00   0.02  0.00  0.00  0.00  0.98  0.00  0.00  0.14  0.00
  WS02006115WS02006116    1.00   0.02  0.00  0.00  0.97  0.00  0.00  0.01  0.00  0.00
  WS02006116WS02004401    1.00   0.02  0.00  0.00  0.98  0.00  0.00  0.00  0.00  0.00
  WS02006228WS02006109    1.00   0.00  0.00  0.00  1.00  0.00  0.00  0.00  0.00  0.00
  WS02006229WS02006228    1.00   0.00  0.00  0.00  0.99  0.00  0.00  0.01  0.00  0.00
  WS02006230WS02006229    1.00   0.00  0.00  0.00  0.99  0.00  0.00  0.01  0.03  0.00
  WS02006231WS02006230    1.00   0.00  0.00  0.00  0.34  0.00  0.66  0.00  0.00  0.00
  WS02006232WS02006231    1.00   0.00  0.00  0.00  0.99  0.00  0.01  0.00  0.00  0.00
  WS02006234WS02006232    1.00   0.00  0.00  0.00  1.00  0.00  0.00  0.00  0.01  0.00
  WS02006235WS02006234    1.00   0.00  0.00  0.00  0.95  0.00  0.05  0.00  0.00  0.00
  WS02006238WS02006235    1.00   0.00  0.00  0.00  1.00  0.00  0.00  0.00  0.01  0.00
  WS02006239WS02006238    1.00   0.00  0.00  0.00  1.00  0.00  0.00  0.00  0.06  0.00
  WS02006240WS02006239    1.00   0.00  0.00  0.00  0.93  0.00  0.00  0.07  0.22  0.00
  WS02006242WS02006240    1.00   0.00  0.00  0.00  0.88  0.00  0.11  0.00  0.00  0.00
  WS02006243WS02006242    1.00   0.00  0.00  0.00  0.98  0.00  0.00  0.02  0.54  0.00
  WS02006245WS02006243    1.00   0.00  0.00  0.00  0.71  0.00  0.00  0.29  0.01  0.00
  WS02006247WS02006245    1.00   0.00  0.00  0.00  0.98  0.00  0.00  0.02  0.00  0.00
  WS02006248WS02006247    1.00   0.00  0.00  0.00  0.98  0.00  0.00  0.02  0.29  0.00
  WS02006249WS02006248    1.00   0.00  0.00  0.00  0.48  0.00  0.52  0.00  0.00  0.00
  WS02006251WS02006249    1.00   0.00  0.00  0.00  0.99  0.01  0.00  0.00  0.54  0.00
  WS02006252WS02006251    1.00   0.00  0.35  0.00  0.23  0.00  0.42  0.00  0.00  0.00
  WS02006256WS02006235    1.00   0.00  0.00  0.00  0.96  0.04  0.00  0.00  0.01  0.00
  WSF200WS02003060        1.00   0.00  0.05  0.00  0.25  0.70  0.00  0.00  0.61  0.00
  YS02001580YS02001583    1.00   0.21  0.53  0.00  0.25  0.00  0.00  0.00  0.63  0.00
  YS02001583YS02001586    1.00   0.39  0.30  0.00  0.31  0.00  0.00  0.00  0.63  0.00
  YS02001586YS02001590    1.00   0.13  0.00  0.00  0.47  0.04  0.00  0.36  0.34  0.00
  YS02001590YS02001593    1.00   0.13  0.01  0.00  0.18  0.00  0.69  0.00  0.00  0.00
  YS02001593YS02001596    1.00   0.13  0.00  0.00  0.20  0.01  0.00  0.66  0.02  0.00
  YS02001596YS02001600    1.00   0.13  0.00  0.00  0.25  0.01  0.00  0.61  0.04  0.00
  YS02001600YS02001601    1.00   0.13  0.01  0.00  0.86  0.00  0.00  0.00  0.56  0.00
  YS02001601YS02001602    1.00   0.13  0.01  0.00  0.87  0.00  0.00  0.00  0.00  0.00
  YS02001602YS02001605    1.00   0.13  0.00  0.00  0.87  0.00  0.00  0.00  0.00  0.00
  YS02001605YS02001607    1.00   0.13  0.00  0.00  0.87  0.00  0.00  0.00  0.00  0.00
  YS02001607YS02001610    1.00   0.13  0.00  0.00  0.86  0.00  0.00  0.00  0.01  0.00
  YS02001610YS02001613    1.00   0.13  0.00  0.00  0.87  0.00  0.00  0.00  0.00  0.00
  YS02001613YS02001616    1.00   0.13  0.00  0.00  0.87  0.00  0.00  0.00  0.00  0.00
  YS02001616YS02001619    1.00   0.13  0.00  0.00  0.87  0.00  0.00  0.00  0.00  0.00
  YS02001619YS02001622    1.00   0.13  0.00  0.00  0.87  0.00  0.00  0.00  0.26  0.00
  YS02001622YS02001625    1.00   0.13  0.00  0.00  0.87  0.00  0.00  0.00  0.02  0.00
  YS02001625YS02001629    1.00   0.13  0.03  0.00  0.21  0.00  0.62  0.00  0.00  0.00
  YS02001629YS02163301    1.00   0.14  0.01  0.00  0.85  0.00  0.00  0.00  0.00  0.00
  YS02001633YS02163601    1.00   0.00  0.01  0.00  0.99  0.00  0.00  0.00  0.14  0.00
  YS02001641YS02001644    1.00   0.00  0.01  0.00  0.99  0.00  0.00  0.00  0.00  0.00
  YS02001644YS02001647    1.00   0.00  0.16  0.00  0.84  0.00  0.00  0.00  0.00  0.00
  YS02001647YS02001649    1.00   0.00  0.15  0.00  0.55  0.30  0.00  0.00  0.54  0.00
  YS02001649YS02001757    1.00   0.00  0.00  0.00  0.88  0.12  0.00  0.00  0.70  0.00
  YS02001652YS02001649    1.00   0.00  0.00  0.00  0.98  0.02  0.00  0.00  0.70  0.00
  YS02001655YS02001652    1.00   0.00  0.00  0.00  0.23  0.01  0.00  0.76  0.06  0.00
  YS02001658YS02001655    1.00   0.00  0.14  0.00  0.68  0.18  0.00  0.00  0.65  0.00
  YS02001661YS02001658    1.00   0.14  0.00  0.00  0.50  0.36  0.00  0.00  0.69  0.00
  YS02001664YS02001661    1.00   0.13  0.00  0.00  0.71  0.16  0.00  0.00  0.84  0.00
  YS02001745YS02001748    1.00   0.00  0.00  0.00  0.11  0.02  0.00  0.87  0.07  0.00
  YS02001748YS02001751    1.00   0.00  0.00  0.00  0.83  0.17  0.00  0.00  0.76  0.00
  YS02001751YS02001754    1.00   0.00  0.00  0.00  0.19  0.01  0.00  0.80  0.03  0.00
  YS02001754YS02001757    1.00   0.00  0.00  0.00  1.00  0.00  0.00  0.00  0.79  0.00
  YS02001757CaochengTiaoxuchi    1.00   0.00  0.00  0.00  0.23  0.77  0.00  0.00  0.11  0.00
  YS02001759YS02001757    1.00   0.00  0.00  0.00  1.00  0.00  0.00  0.00  0.60  0.00
  YS02001762YS02001759    1.00   0.00  0.00  0.00  1.00  0.00  0.00  0.00  0.06  0.00
  YS02001765YS02001762    1.00   0.00  0.00  0.00  1.00  0.00  0.00  0.00  0.70  0.00
  YS02001767YS02001765    1.00   0.00  0.00  0.00  1.00  0.00  0.00  0.00  0.00  0.00
  YS02001770YS02001767    1.00   0.00  0.00  0.00  1.00  0.00  0.00  0.00  0.00  0.00
  YS02001774YS02001770    1.00   0.00  0.13  0.00  0.72  0.00  0.15  0.00  0.02  0.00
  YS02001779YS02001774    1.00   0.00  0.00  0.00  1.00  0.00  0.00  0.00  0.75  0.00
  YS02001783YS02001784    1.00   0.00  0.16  0.00  0.84  0.00  0.00  0.00  0.54  0.00
  YS02001784YS02001785    1.00   0.00  0.00  0.00  1.00  0.00  0.00  0.00  0.15  0.00
  YS02001786YS02001788    1.00   0.00  0.00  0.00  0.80  0.20  0.00  0.00  0.00  0.00
  YS02001788YS02001790    1.00   0.00  0.00  0.00  0.22  0.78  0.00  0.00  0.77  0.00
  YS02001790YS02001791    1.00   0.00  0.00  0.00  0.01  0.99  0.00  0.00  0.15  0.00
  YS02001791YS02001793    1.00   0.00  0.00  0.00  0.00  1.00  0.00  0.00  0.02  0.00
  YS02001793JiankangQianchi    1.00   0.00  0.00  0.00  0.00  1.00  0.00  0.00  0.19  0.00
  YS02001882YS02001884    1.00   0.14  0.00  0.00  0.85  0.00  0.00  0.00  0.00  0.00
  YS02001884YS02001887    1.00   0.06  0.05  0.00  0.89  0.00  0.00  0.00  0.00  0.00
  YS02001887YS02001890    1.00   0.00  0.00  0.00  0.97  0.00  0.03  0.00  0.00  0.00
  YS02001890YS02001895    1.00   0.00  0.15  0.00  0.85  0.00  0.00  0.00  0.00  0.00
  YS02001895YS02001898    1.00   0.15  0.00  0.00  0.84  0.00  0.01  0.00  0.00  0.00
  YS02001898YS02001901    1.00   0.15  0.00  0.00  0.85  0.00  0.00  0.00  0.00  0.00
  YS02001901YS02001904    1.00   0.15  0.00  0.00  0.85  0.00  0.00  0.00  0.00  0.00
  YS02001904YS02001907    1.00   0.00  0.15  0.00  0.85  0.00  0.00  0.00  0.00  0.00
  YS02001907YS02006553    1.00   0.00  0.02  0.00  0.98  0.00  0.00  0.00  0.00  0.00
  YS02001910YS02001907    1.00   0.00  0.00  0.00  0.97  0.00  0.00  0.03  0.12  0.00
  YS02001915YS02001910    1.00   0.00  0.00  0.00  0.97  0.03  0.00  0.00  0.13  0.00
  YS02001918YS02001915    1.00   0.00  0.01  0.00  0.98  0.02  0.00  0.00  0.68  0.00
  YS02001920YS02001918    1.00   0.00  0.01  0.00  0.99  0.00  0.00  0.00  0.00  0.00
  YS02001923YS02001920    1.00   0.00  0.00  0.00  1.00  0.00  0.00  0.00  0.88  0.00
  YS02001926YS02001923    1.00   0.00  0.07  0.00  0.10  0.00  0.82  0.00  0.00  0.00
  YS02001929YS02001926    1.00   0.00  0.13  0.00  0.87  0.00  0.00  0.00  0.78  0.00
  YS02006553YS02006556    1.00   0.01  0.00  0.00  0.99  0.00  0.00  0.00  0.03  0.00
  YS02006556YS02006558    1.00   0.00  0.00  0.00  1.00  0.00  0.00  0.00  0.00  0.00
  YS02006558YS02006561    1.00   0.16  0.00  0.00  0.09  0.74  0.00  0.00  0.16  0.00
  YS02006561YS02001783    1.00   0.16  0.00  0.00  0.14  0.70  0.00  0.00  0.64  0.00
  YS02163301YS02001633    1.00   0.00  0.14  0.00  0.86  0.00  0.00  0.00  0.00  0.00
  YS02163601YS02164001    1.00   0.00  0.08  0.00  0.92  0.00  0.00  0.00  0.00  0.00
  YS02164001YS02001641    1.00   0.01  0.08  0.00  0.92  0.00  0.00  0.00  0.05  0.00
  
  
  *************************
  Conduit Surcharge Summary
  *************************
  
  ----------------------------------------------------------------------------
                                                           Hours        Hours 
                         --------- Hours Full --------   Above Full   Capacity
  Conduit                Both Ends  Upstream  Dnstream   Normal Flow   Limited
  ----------------------------------------------------------------------------
  WS02003072WS02003073        0.01      0.01      0.01      2.11         0.01
  WS02004404WS02004405        0.01      0.01      0.01      3.46         0.01
  WS02004405WS02004406        0.01      0.01      0.01      1.07         0.01
  WS02006109WS02006110        0.06      0.06      2.58      0.09         0.01
  WS02006110WS02006113        0.01      0.01      2.57      0.01         0.01
  WS02006111WS02006112        0.01      0.01      2.64      0.01         0.01
  WS02006112WS02006115        0.01      0.01      1.77      0.01         0.01
  WS02006228WS02006109        2.51      2.59      2.51      2.86         2.51
  WS02006229WS02006228        2.50      2.53      2.50      2.74         2.49
  WS02006230WS02006229        2.65      2.68      2.65      4.38         2.65
  WS02006231WS02006230        0.04      0.04      1.70      3.74         0.01
  WS02006232WS02006231        1.34      1.34      2.61      1.63         0.01
  WS02006234WS02006232        2.41      2.41      2.61      0.99         0.99
  WS02006235WS02006234        2.05      2.08      2.46      3.43         0.31
  WS02006238WS02006235        2.52      2.52      2.63      0.01         0.07
  WS02006239WS02006238        2.56      2.61      2.57      2.60         1.63
  WS02006240WS02006239        2.48      2.53      2.50      2.60         1.62
  WS02006242WS02006240        2.50      2.50      2.67      2.80         0.03
  WS02006243WS02006242        2.51      2.51      2.61      0.01         0.40
  WS02006245WS02006243        2.47      2.49      2.48      2.63         1.60
  WS02006247WS02006245        2.47      2.52      2.47      3.06         2.18
  WS02006248WS02006247        2.46      2.47      2.49      0.01         0.80
  WS02006249WS02006248        2.44      2.44      2.48      3.00         0.01
  WS02006251WS02006249        2.47      2.50      2.48      2.90         2.20
  WS02006252WS02006251        3.03      3.03      3.03      3.03         0.01
  WS02006256WS02006235        2.62      3.50      5.91      1.97         0.09
  YS02001580YS02001583        1.04      1.04      1.07      0.01         0.01
  YS02001583YS02001586        1.04      1.04      1.17      0.01         0.01
  YS02001586YS02001590        1.18      1.18      1.27      0.01         0.01
  YS02001590YS02001593        1.27      1.27      1.30      1.32         0.01
  YS02001593YS02001596        1.29      1.29      1.41      0.01         0.01
  YS02001596YS02001600        1.46      1.46      1.54      0.01         0.01
  YS02001600YS02001601        1.59      1.59      1.83      0.01         0.01
  YS02001601YS02001602        1.74      1.74      1.86      1.57         0.01
  YS02001602YS02001605        1.69      1.69      1.74      2.57         0.01
  YS02001605YS02001607        1.65      1.69      1.65      1.80         1.65
  YS02001607YS02001610        1.20      1.20      1.23      0.01         0.01
  YS02001610YS02001613        1.19      1.19      1.23      0.01         0.01
  YS02001613YS02001616        1.13      1.13      1.19      0.01         0.01
  YS02001616YS02001619        1.11      1.11      1.13      0.18         0.06
  YS02001619YS02001622        1.10      1.11      1.10      1.32         1.08
  YS02001622YS02001625        1.10      1.10      1.35      0.01         0.01
  YS02001625YS02001629        0.99      0.99      1.35      0.01         0.01
  YS02001629YS02163301        1.33      1.33      1.34      0.56         0.45
  YS02001633YS02163601        1.36      1.36      1.39      0.71         0.70
  YS02001641YS02001644        1.18      1.23      1.18      1.88         1.17
  YS02001644YS02001647        0.84      0.84      1.18      0.03         0.01
  YS02001647YS02001649        0.84      0.84      0.98      0.01         0.01
  YS02001649YS02001757        0.97      0.98      1.03      0.57         0.47
  YS02001652YS02001649        0.74      0.74      0.98      0.01         0.01
  YS02001655YS02001652        0.50      0.50      0.70      0.01         0.01
  YS02001658YS02001655        0.36      0.36      0.50      0.01         0.01
  YS02001661YS02001658        0.17      0.17      0.36      0.01         0.01
  YS02001664YS02001661        0.01      0.01      0.21      0.01         0.01
  YS02001745YS02001748        0.01      0.01      0.24      0.01         0.01
  YS02001748YS02001751        0.31      0.31      0.38      0.01         0.01
  YS02001751YS02001754        0.38      0.38      0.52      0.01         0.01
  YS02001754YS02001757        0.57      0.57      1.03      0.01         0.01
  YS02001757CaochengTiaoxuchi        0.58      1.03      1.05      0.75         0.24
  YS02001759YS02001757        0.88      0.88      1.03      0.17         0.19
  YS02001762YS02001759        0.84      0.84      0.88      0.01         0.04
  YS02001765YS02001762        0.79      0.79      0.84      0.01         0.01
  YS02001767YS02001765        0.74      0.74      0.79      0.02         0.07
  YS02001770YS02001767        0.74      0.75      0.74      0.89         0.63
  YS02001774YS02001770        0.71      0.71      0.82      0.01         0.01
  YS02001779YS02001774        0.54      0.54      0.82      0.01         0.01
  YS02001783YS02001784        0.83      0.87      0.83      1.09         0.83
  YS02001784YS02001785        0.69      0.83      0.69      1.46         0.69
  YS02001786YS02001788        0.01      0.69      0.01      1.25         0.01
  YS02001790YS02001791        0.01      0.01      0.01      0.82         0.01
  YS02001882YS02001884        0.79      0.79      0.80      0.01         0.01
  YS02001884YS02001887        0.83      0.83      0.85      0.01         0.01
  YS02001887YS02001890        0.87      0.87      0.89      0.26         0.01
  YS02001890YS02001895        0.78      0.78      0.91      0.01         0.01
  YS02001895YS02001898        0.77      0.77      0.78      0.01         0.01
  YS02001898YS02001901        0.78      0.78      0.83      0.01         0.01
  YS02001901YS02001904        0.82      0.82      0.83      0.01         0.01
  YS02001904YS02001907        0.82      0.82      1.22      0.01         0.01
  YS02001907YS02006553        1.46      1.46      1.52      0.01         0.01
  YS02001910YS02001907        0.91      0.91      1.18      0.14         0.14
  YS02001915YS02001910        0.79      0.79      0.91      0.01         0.02
  YS02001918YS02001915        0.68      0.68      0.79      0.01         0.01
  YS02001920YS02001918        0.68      0.68      0.69      0.01         0.01
  YS02001923YS02001920        0.62      0.62      0.69      0.01         0.01
  YS02001926YS02001923        0.27      0.27      0.32      0.08         0.01
  YS02001929YS02001926        0.16      0.16      0.32      0.01         0.01
  YS02006553YS02006556        1.04      1.04      1.22      0.01         0.01
  YS02006556YS02006558        1.12      1.12      1.25      0.01         0.01
  YS02006558YS02006561        0.72      1.02      0.72      1.39         0.72
  YS02006561YS02001783        0.63      0.63      0.87      0.01         0.01
  YS02163301YS02001633        1.34      1.34      1.38      0.01         0.01
  YS02163601YS02164001        1.25      1.25      1.39      0.32         0.01
  YS02164001YS02001641        1.23      1.25      1.23      1.09         0.94
  
  
  ***************
  Pumping Summary
  ***************
  
  ---------------------------------------------------------------------------------------------------------
                                                  Min       Avg       Max     Total     Power    % Time Off
                        Percent   Number of      Flow      Flow      Flow    Volume     Usage    Pump Curve
  Pump                 Utilized   Start-Ups       LPS       LPS       LPS  10^6 ltr     Kw-hr    Low   High
  ---------------------------------------------------------------------------------------------------------
  CC-R1                   33.47           6      0.00    683.00    683.00     6.515    110.85    0.0   60.3
  CC-R2                   33.47           6      0.00    683.00    683.00     6.515    110.85    0.0   60.3
  CC-S1                   38.30          12      0.00    200.00    200.00     2.183     16.16    0.0   34.9
  CC-S2                   38.30          12      0.00    200.00    200.00     2.183     16.16    0.0   34.9
  JK-R1                    7.87         604      0.00    999.14   1000.00     2.240      5.34    0.0    0.0
  JK-R2                    7.87         604      0.00    999.14   1000.00     2.240      5.34    0.0    0.0
  JK-S                    20.99         830      0.00    297.29    300.00     1.746     40.04    0.0    0.0
  

  Analysis begun on:  Thu Jan 16 14:21:28 2025
  Analysis ended on:  Thu Jan 16 14:21:30 2025
  Total elapsed time: 00:00:02