
  EPA STORM WATER MANAGEMENT MODEL - VERSION 5.2 (Build 5.2.4)
  PYSWMM TOOLKIT API - VERSION v1.0 (2023-11-27)
  ------------------------------------------------------------

  WARNING 04: minimum elevation drop used for Conduit WS02004404WS02004405
  WARNING 03: negative offset ignored for Link YS02001904YS02001907
  
  ****************
  Analysis Options
  ****************
  Flow Units ............... LPS
  Process Models:
    Rainfall/Runoff ........ YES
    RDII ................... NO
    Snowmelt ............... NO
    Groundwater ............ NO
    Flow Routing ........... YES
    Ponding Allowed ........ NO
    Water Quality .......... NO
  Infiltration Method ...... HORTON
  Flow Routing Method ...... DYNWAVE
  Surcharge Method ......... EXTRAN
  Starting Date ............ 08/28/2015 08:00:00
  Ending Date .............. 08/28/2015 16:00:00
  Antecedent Dry Days ...... 8.0
  Report Time Step ......... 00:01:00
  Wet Time Step ............ 00:01:00
  Dry Time Step ............ 00:01:00
  Routing Time Step ........ 30.00 sec
  Variable Time Step ....... YES
  Maximum Trials ........... 8
  Number of Threads ........ 4
  Head Tolerance ........... 0.001500 m
  
  
  **************************        Volume         Depth
  Runoff Quantity Continuity     hectare-m            mm
  **************************     ---------       -------
  Total Precipitation ......         2.423        73.037
  Evaporation Loss .........         0.000         0.000
  Infiltration Loss ........         0.103         3.096
  Surface Runoff ...........         2.287        68.957
  Final Storage ............         0.033         0.998
  Continuity Error (%) .....        -0.019
  
  
  **************************        Volume        Volume
  Flow Routing Continuity        hectare-m      10^6 ltr
  **************************     ---------     ---------
  Dry Weather Inflow .......         0.025         0.248
  Wet Weather Inflow .......         2.287        22.870
  Groundwater Inflow .......         0.000         0.000
  RDII Inflow ..............         0.000         0.000
  External Inflow ..........         0.083         0.825
  External Outflow .........         1.937        19.367
  Flooding Loss ............         0.727         7.274
  Evaporation Loss .........         0.000         0.000
  Exfiltration Loss ........         0.000         0.000
  Initial Stored Volume ....         0.243         2.431
  Final Stored Volume ......         0.041         0.411
  Continuity Error (%) .....        -2.573
  
  
  *************************
  Highest Continuity Errors
  *************************
  Node WS02006256 (-15.03%)
  Node JK-storage (-8.67%)
  Node YS02001884 (5.22%)
  Node YS02001583 (-3.78%)
  
  
  ***************************
  Time-Step Critical Elements
  ***************************
  Link WS02006238WS02006235 (36.86%)
  Link YS02001793JiankangQianchi (31.64%)
  Link WS02004404WS02004405 (6.50%)
  Link WS02003066WSF200 (6.39%)
  Link WS02006235WS02006234 (2.37%)
  
  
  ********************************
  Highest Flow Instability Indexes
  ********************************
  Link WS02006229WS02006228 (47)
  Link WS02006256WS02006235 (42)
  Link WS02006252WS02006251 (40)
  Link WS02006113WS02006111 (39)
  Link WS02006228WS02006109 (33)
  
  
  *********************************
  Most Frequent Nonconverging Nodes
  *********************************
  Node CC-1 (50.45%)
  Node CC-2 (50.45%)
  Node JK-1 (50.45%)
  Node JK-2 (50.45%)
  Node WSC (50.45%)
  
  
  *************************
  Routing Time Step Summary
  *************************
  Minimum Time Step           :     0.01 sec
  Average Time Step           :     2.51 sec
  Maximum Time Step           :     6.43 sec
  % of Time in Steady State   :     0.00
  Average Iterations per Step :     5.53
  % of Steps Not Converging   :    50.45
  Time Step Frequencies       :
     30.000 - 13.228 sec      :     0.00 %
     13.228 -  5.833 sec      :     4.92 %
      5.833 -  2.572 sec      :    34.52 %
      2.572 -  1.134 sec      :    43.65 %
      1.134 -  0.500 sec      :    16.92 %
  
  
  ***************************
  Subcatchment Runoff Summary
  ***************************
  
  ------------------------------------------------------------------------------------------------------------------------------
                            Total      Total      Total      Total     Imperv       Perv      Total       Total     Peak  Runoff
                           Precip      Runon       Evap      Infil     Runoff     Runoff     Runoff      Runoff   Runoff   Coeff
  Subcatchment                 mm         mm         mm         mm         mm         mm         mm    10^6 ltr      LPS
  ------------------------------------------------------------------------------------------------------------------------------
  sub60                     73.04       0.00       0.00       1.85      63.07       6.92      69.99        0.92   609.40   0.958
  sub61                     73.04       0.00       0.00       2.68      59.49       9.74      69.23        1.27   847.86   0.948
  sub62                     73.04       0.00       0.00       1.23      65.91       4.61      70.52        1.93  1190.48   0.966
  sub63                     73.04       0.00       0.00       4.97      50.89      16.22      67.11        1.52   964.20   0.919
  sub64                     73.04       0.00       0.00       2.51      60.87       8.45      69.32        1.67   986.22   0.949
  sub65                     73.04       0.00       0.00       2.17      62.29       7.33      69.61        1.92  1105.37   0.953
  sub66                     73.04       0.00       0.00       6.17      50.78      15.01      65.79        3.07  1485.73   0.901
  sub67                     73.04       0.00       0.00       1.18      65.95       4.66      70.61        1.31   912.15   0.967
  sub68                     73.04       0.00       0.00       2.22      61.62       8.00      69.63        1.92  1221.78   0.953
  sub69                     73.04       0.00       0.00       2.00      61.97       8.96      70.92        2.63  1469.23   0.971
  sub70                     73.04       0.00       0.00       6.70      48.03      18.14      66.17        1.91   836.48   0.906
  sub71                     73.04       0.00       0.00       1.27      65.86       4.58      70.44        1.84  1065.31   0.964
  sub72                     73.04       0.00       0.00       1.13      66.52       3.99      70.50        0.97   519.86   0.965
  
  
  ******************
  Node Depth Summary
  ******************
  
  ---------------------------------------------------------------------------------
                                 Average  Maximum  Maximum  Time of Max    Reported
                                   Depth    Depth      HGL   Occurrence   Max Depth
  Node                 Type       Meters   Meters   Meters  days hr:min      Meters
  ---------------------------------------------------------------------------------
  WS02003060           JUNCTION     0.24     0.38     5.31     0  03:10        0.38
  WS02003066           JUNCTION     0.20     0.30     5.85     0  03:09        0.30
  WS02003067           JUNCTION     0.51     0.70     6.02     0  03:09        0.70
  WS02003069           JUNCTION     0.27     0.43     5.01     0  03:11        0.43
  WS02003072           JUNCTION     0.33     0.50     4.87     0  03:11        0.50
  WS02003073           JUNCTION     0.19     0.30     4.36     0  03:12        0.30
  WS02004401           JUNCTION     0.62     0.87     6.87     0  03:07        0.87
  WS02004402           JUNCTION     0.65     0.90     6.86     0  03:07        0.90
  WS02004403           JUNCTION     0.67     0.91     6.84     0  03:07        0.91
  WS02004404           JUNCTION     0.74     1.00     6.85     0  03:08        0.99
  WS02004405           JUNCTION     0.72     0.96     6.81     0  03:08        0.96
  WS02004406           JUNCTION     0.74     0.95     6.78     0  03:08        0.95
  WS02004407           JUNCTION     0.18     0.29     6.61     0  03:08        0.29
  WS02004409           JUNCTION     0.41     0.66     6.43     0  03:08        0.66
  WS02004410           JUNCTION     0.43     0.68     6.40     0  03:08        0.68
  WS02004411           JUNCTION     0.45     0.69     6.37     0  03:09        0.69
  WS02004412           JUNCTION     0.47     0.69     6.33     0  03:09        0.69
  WS02004413           JUNCTION     0.63     0.85     6.32     0  03:09        0.85
  WS02006109           JUNCTION     0.69     1.01     7.63     0  03:03        0.98
  WS02006110           JUNCTION     0.68     0.95     7.54     0  03:11        0.92
  WS02006111           JUNCTION     0.19     0.29     6.99     0  03:06        0.29
  WS02006112           JUNCTION     0.78     1.08     6.96     0  03:06        1.06
  WS02006113           JUNCTION     0.29     0.46     7.35     0  03:04        0.45
  WS02006115           JUNCTION     0.51     0.77     6.91     0  03:07        0.77
  WS02006116           JUNCTION     0.59     0.85     6.89     0  03:07        0.85
  WS02006228           JUNCTION     0.69     1.08     7.73     0  03:11        1.03
  WS02006229           JUNCTION     0.67     1.08     7.78     0  03:11        1.03
  WS02006230           JUNCTION     0.68     1.19     7.94     0  03:11        1.13
  WS02006231           JUNCTION     0.48     1.65     8.77     0  02:23        1.16
  WS02006232           JUNCTION     0.62     1.74     8.78     0  02:23        1.61
  WS02006234           JUNCTION     0.56     1.96     9.12     0  03:11        1.96
  WS02006235           JUNCTION     0.61     2.00     9.16     0  02:10        2.00
  WS02006238           JUNCTION     0.64     2.15     9.29     0  03:11        2.15
  WS02006239           JUNCTION     0.61     2.03     9.24     0  02:10        2.03
  WS02006240           JUNCTION     0.57     2.10     9.39     0  02:28        2.10
  WS02006242           JUNCTION     0.64     1.55     8.82     0  01:43        1.55
  WS02006243           JUNCTION     0.56     1.48     8.90     0  01:47        1.48
  WS02006245           JUNCTION     0.56     1.56     9.04     0  01:53        1.56
  WS02006247           JUNCTION     0.58     1.47     8.97     0  01:45        1.47
  WS02006248           JUNCTION     0.55     1.10     8.69     0  01:40        1.10
  WS02006249           JUNCTION     0.57     1.09     8.69     0  01:40        1.09
  WS02006251           JUNCTION     0.57     2.08     9.75     0  01:45        1.15
  WS02006252           JUNCTION     0.37     1.50     9.74     0  00:00        0.71
  WS02006256           JUNCTION     1.16     2.35     9.28     0  00:00        2.35
  WSF200               JUNCTION     0.18     0.29     5.52     0  03:09        0.29
  YS02001580           JUNCTION     0.17     1.05     9.59     0  02:00        0.77
  YS02001583           JUNCTION     0.20     1.14     9.64     0  02:00        0.82
  YS02001586           JUNCTION     0.31     1.13     9.30     0  02:00        1.13
  YS02001590           JUNCTION     0.43     1.40     9.26     0  02:00        1.38
  YS02001593           JUNCTION     0.36     1.33     9.19     0  02:00        1.29
  YS02001596           JUNCTION     0.49     1.68     9.10     0  02:00        1.66
  YS02001600           JUNCTION     0.59     1.87     9.00     0  02:00        1.86
  YS02001601           JUNCTION     0.78     2.06     8.90     0  01:59        2.06
  YS02001602           JUNCTION     0.67     1.87     8.77     0  02:00        1.87
  YS02001605           JUNCTION     0.62     1.78     8.68     0  02:10        1.78
  YS02001607           JUNCTION     0.57     1.65     8.49     0  02:29        1.64
  YS02001610           JUNCTION     0.61     1.68     8.48     0  02:04        1.68
  YS02001613           JUNCTION     0.57     1.67     8.51     0  02:10        1.67
  YS02001616           JUNCTION     0.51     1.61     8.52     0  02:13        1.61
  YS02001619           JUNCTION     0.49     1.61     8.54     0  02:10        1.61
  YS02001622           JUNCTION     0.47     1.59     8.49     0  02:14        1.59
  YS02001625           JUNCTION     0.72     1.78     8.38     0  02:04        1.78
  YS02001629           JUNCTION     0.61     1.85     8.40     0  02:06        1.85
  YS02001633           JUNCTION     0.68     2.03     8.48     0  02:06        2.02
  YS02001641           JUNCTION     0.64     1.95     8.39     0  02:10        1.95
  YS02001644           JUNCTION     0.62     1.92     8.35     0  02:08        1.92
  YS02001647           JUNCTION     0.39     1.76     8.37     0  02:11        1.75
  YS02001649           JUNCTION     0.43     1.99     8.38     0  02:11        1.97
  YS02001652           JUNCTION     0.31     1.86     8.45     0  02:11        1.82
  YS02001655           JUNCTION     0.23     1.95     8.80     0  02:06        1.60
  YS02001658           JUNCTION     0.17     1.52     8.67     0  02:08        1.36
  YS02001661           JUNCTION     0.19     1.27     8.68     0  02:11        1.15
  YS02001664           JUNCTION     0.09     0.61     8.53     0  02:12        0.60
  YS02001745           JUNCTION     0.09     0.81     8.33     0  02:13        0.81
  YS02001748           JUNCTION     0.15     1.83     8.90     0  02:08        1.24
  YS02001751           JUNCTION     0.18     1.75     8.63     0  02:07        1.41
  YS02001754           JUNCTION     0.25     1.80     8.41     0  02:08        1.67
  YS02001757           JUNCTION     0.43     2.01     8.27     0  02:11        1.99
  YS02001759           JUNCTION     0.37     2.01     8.37     0  02:11        2.00
  YS02001762           JUNCTION     0.36     1.99     8.39     0  02:11        1.97
  YS02001765           JUNCTION     0.34     1.96     8.41     0  02:11        1.93
  YS02001767           JUNCTION     0.34     1.93     8.42     0  02:11        1.93
  YS02001770           JUNCTION     0.35     1.95     8.44     0  02:09        1.95
  YS02001774           JUNCTION     0.41     2.01     8.43     0  02:09        2.01
  YS02001779           JUNCTION     0.24     1.68     8.37     0  02:06        1.68
  YS02001783           JUNCTION     0.36     1.35     7.49     0  02:05        1.23
  YS02001784           JUNCTION     0.36     1.17     7.24     0  02:05        1.12
  YS02001786           JUNCTION     0.30     0.91     6.94     0  02:05        0.87
  YS02001788           JUNCTION     0.22     0.62     6.60     0  02:13        0.62
  YS02001790           JUNCTION     0.25     0.73     6.37     0  02:13        0.71
  YS02001791           JUNCTION     0.16     0.44     5.91     0  02:13        0.43
  YS02001793           JUNCTION     0.09     0.26     5.09     0  02:13        0.25
  YS02001882           JUNCTION     0.44     1.66     8.38     0  02:10        1.66
  YS02001884           JUNCTION     0.53     1.76     8.38     0  02:10        1.76
  YS02001887           JUNCTION     0.60     1.85     8.39     0  02:10        1.85
  YS02001890           JUNCTION     0.63     1.81     8.32     0  02:05        1.81
  YS02001895           JUNCTION     0.41     1.57     8.31     0  02:12        1.56
  YS02001898           JUNCTION     0.42     1.56     8.30     0  02:12        1.56
  YS02001901           JUNCTION     0.52     1.68     8.29     0  02:05        1.68
  YS02001904           JUNCTION     0.50     1.64     8.27     0  02:05        1.64
  YS02001907           JUNCTION     0.81     1.96     8.25     0  02:05        1.96
  YS02001910           JUNCTION     0.62     2.02     8.53     0  02:06        1.92
  YS02001915           JUNCTION     0.45     1.98     8.69     0  02:06        1.86
  YS02001918           JUNCTION     0.27     1.81     8.88     0  02:06        1.53
  YS02001920           JUNCTION     0.35     2.12     9.13     0  02:06        1.59
  YS02001923           JUNCTION     0.22     2.03     9.29     0  02:06        1.35
  YS02001926           JUNCTION     0.24     1.90     9.35     0  02:06        1.90
  YS02001929           JUNCTION     0.15     1.78     9.47     0  02:06        0.95
  YS02006553           JUNCTION     0.81     1.99     8.28     0  02:05        1.98
  YS02006556           JUNCTION     0.78     1.99     8.30     0  02:05        1.98
  YS02006558           JUNCTION     0.82     2.03     8.30     0  02:05        2.03
  YS02006561           JUNCTION     0.23     1.08     7.74     0  02:05        0.90
  YS02163301           JUNCTION     0.63     1.93     8.44     0  02:06        1.91
  YS02163601           JUNCTION     0.70     2.05     8.44     0  02:06        2.04
  YS02164001           JUNCTION     0.63     1.95     8.41     0  02:07        1.94
  CC-1                 OUTFALL      0.00     0.00     0.00     0  00:00        0.00
  CC-2                 OUTFALL      0.00     0.00     0.00     0  00:00        0.00
  JK-1                 OUTFALL      0.00     0.00     0.00     0  00:00        0.00
  JK-2                 OUTFALL      0.00     0.00     0.00     0  00:00        0.00
  WSC                  OUTFALL      0.19     0.30     0.97     0  03:13        0.30
  CC-storage           STORAGE      0.26     0.98     6.48     0  02:44        0.98
  JK-storage           STORAGE      0.02     2.99     3.79     0  00:00        0.68
  
  
  *******************
  Node Inflow Summary
  *******************
  
  -------------------------------------------------------------------------------------------------
                                  Maximum  Maximum                  Lateral       Total        Flow
                                  Lateral    Total  Time of Max      Inflow      Inflow     Balance
                                   Inflow   Inflow   Occurrence      Volume      Volume       Error
  Node                 Type           LPS      LPS  days hr:min    10^6 ltr    10^6 ltr     Percent
  -------------------------------------------------------------------------------------------------
  WS02003060           JUNCTION     16.53   545.81     0  03:10       0.471        5.46       0.042
  WS02003066           JUNCTION      0.00   528.67     0  03:09           0        4.99       0.031
  WS02003067           JUNCTION      0.00   528.41     0  03:09           0           5       0.085
  WS02003069           JUNCTION      0.32   546.06     0  03:10     0.00912        5.47       0.079
  WS02003072           JUNCTION      0.00   545.31     0  03:11           0        5.46       0.141
  WS02003073           JUNCTION      1.82   546.83     0  03:12      0.0519        5.51       0.109
  WS02004401           JUNCTION      0.00   535.16     0  03:04           0         5.1       0.209
  WS02004402           JUNCTION      0.00   533.72     0  03:05           0        5.09       0.211
  WS02004403           JUNCTION      0.00   535.12     0  03:07           0        5.08       0.206
  WS02004404           JUNCTION      0.16   546.05     0  03:07     0.00462        5.07       0.124
  WS02004405           JUNCTION      0.04   590.56     0  03:07     0.00109        5.06       0.198
  WS02004406           JUNCTION      0.00   537.01     0  03:08           0        5.05       0.425
  WS02004407           JUNCTION      0.00   533.06     0  03:08           0        5.03       0.025
  WS02004409           JUNCTION      0.00   532.67     0  03:08           0        5.03       0.059
  WS02004410           JUNCTION      0.00   531.73     0  03:08           0        5.03       0.096
  WS02004411           JUNCTION      0.00   529.78     0  03:08           0        5.02       0.118
  WS02004412           JUNCTION      0.00   529.81     0  03:09           0        5.02       0.155
  WS02004413           JUNCTION      0.00   528.73     0  03:09           0        5.01       0.286
  WS02006109           JUNCTION      1.23   547.36     0  03:04      0.0351        5.14       0.133
  WS02006110           JUNCTION      0.00   547.90     0  03:04           0        5.14       0.140
  WS02006111           JUNCTION      0.00   562.14     0  03:04           0        5.13       0.027
  WS02006112           JUNCTION      0.00   542.71     0  03:06           0        5.13       0.412
  WS02006113           JUNCTION      0.00   549.74     0  03:03           0        5.13       0.036
  WS02006115           JUNCTION      0.00   542.02     0  03:04           0        5.11       0.146
  WS02006116           JUNCTION      0.00   535.95     0  03:04           0         5.1       0.038
  WS02006228           JUNCTION      0.00   545.70     0  03:04           0        5.11       0.058
  WS02006229           JUNCTION      0.00   545.25     0  03:04           0        5.12       0.127
  WS02006230           JUNCTION     10.28   588.48     0  03:11       0.293        5.12       0.106
  WS02006231           JUNCTION      0.00   572.18     0  03:11           0        4.83      -0.061
  WS02006232           JUNCTION      0.00   561.60     0  03:11           0        4.84       0.269
  WS02006234           JUNCTION      0.00   552.35     0  03:02           0        4.82      -0.356
  WS02006235           JUNCTION      0.00   575.74     0  01:35           0        4.99       0.094
  WS02006238           JUNCTION      0.00   427.09     0  03:31           0        3.83      -0.284
  WS02006239           JUNCTION      0.00   420.99     0  03:23           0        3.69      -0.413
  WS02006240           JUNCTION      0.00   421.04     0  03:31           0        3.64      -0.279
  WS02006242           JUNCTION      0.00   421.97     0  03:31           0        3.63      -0.083
  WS02006243           JUNCTION      0.00   457.69     0  01:50           0        3.63      -0.111
  WS02006245           JUNCTION      0.00   496.23     0  01:50           0        3.66       0.786
  WS02006247           JUNCTION      0.00   502.75     0  01:50           0        3.65      -0.204
  WS02006248           JUNCTION      0.00   569.18     0  01:50           0        3.66       0.078
  WS02006249           JUNCTION      0.00   538.97     0  01:49           0        3.81       0.621
  WS02006251           JUNCTION      0.08   428.11     0  01:44     0.00219        3.82       0.087
  WS02006252           JUNCTION      0.00   400.00     0  00:00           0        3.81      -0.230
  WS02006256           JUNCTION      0.00   300.00     0  00:00           0        1.65     -13.067
  WSF200               JUNCTION      0.00   528.77     0  03:10           0        4.99       0.011
  YS02001580           JUNCTION      0.00    75.60     0  02:00           0     0.00407       1.809
  YS02001583           JUNCTION      0.00   128.73     0  01:59           0      0.0155      -3.642
  YS02001586           JUNCTION    836.48   836.48     0  02:15        1.91        1.92       0.057
  YS02001590           JUNCTION      0.00   317.97     0  02:09           0        1.44      -0.030
  YS02001593           JUNCTION      0.00   317.85     0  02:09           0        1.44       0.015
  YS02001596           JUNCTION      0.00   317.84     0  02:13           0        1.44       0.004
  YS02001600           JUNCTION      0.00   317.87     0  02:37           0        1.44       0.023
  YS02001601           JUNCTION   1469.23  1786.71     0  02:14        2.63        4.07       0.023
  YS02001602           JUNCTION      0.00   511.00     0  02:42           0        2.49       0.021
  YS02001605           JUNCTION      0.00   510.88     0  02:42           0        2.39       0.020
  YS02001607           JUNCTION      0.00   511.06     0  02:42           0        2.39       0.088
  YS02001610           JUNCTION      0.00   833.61     0  02:15           0         2.7       0.093
  YS02001613           JUNCTION      0.00   511.64     0  02:42           0        2.23       0.079
  YS02001616           JUNCTION      0.00   511.47     0  02:42           0        2.23       0.023
  YS02001619           JUNCTION   1485.73  1485.73     0  02:15        3.07        4.98       0.002
  YS02001622           JUNCTION      0.00   997.16     0  02:14           0        4.67       0.004
  YS02001625           JUNCTION      0.00  1421.26     0  02:15           0         4.9       0.184
  YS02001629           JUNCTION      0.00   977.53     0  02:33           0        4.01       0.027
  YS02001633           JUNCTION   1105.57  1360.35     0  02:04        1.92        5.66       0.064
  YS02001641           JUNCTION      0.00  1357.57     0  02:04           0         5.4       0.055
  YS02001644           JUNCTION    986.26  1746.03     0  02:04        1.67        7.06       0.049
  YS02001647           JUNCTION      0.00  1745.61     0  02:04           0        6.62       0.007
  YS02001649           JUNCTION      0.00  1998.77     0  02:05           0        8.14       0.005
  YS02001652           JUNCTION      0.00   989.31     0  02:13           0        1.53      -0.054
  YS02001655           JUNCTION      0.15   989.66     0  02:13     0.00439        1.53       0.022
  YS02001658           JUNCTION      0.00   989.13     0  02:13           0        1.52      -0.012
  YS02001661           JUNCTION      0.00   988.06     0  02:13           0        1.52       0.010
  YS02001664           JUNCTION    964.20   964.20     0  02:13        1.52        1.52      -0.003
  YS02001745           JUNCTION    609.41   609.41     0  02:13        0.92        0.92       0.080
  YS02001748           JUNCTION      0.04   624.72     0  02:13     0.00128       0.921      -0.120
  YS02001751           JUNCTION      0.01   625.41     0  02:13    0.000313       0.924       0.042
  YS02001754           JUNCTION      0.26   625.59     0  02:13     0.00741       0.934      -0.048
  YS02001757           JUNCTION      0.00  3455.20     0  02:15           0        12.1       0.036
  YS02001759           JUNCTION    847.90  1417.38     0  02:13        1.27        3.01      -0.003
  YS02001762           JUNCTION      0.00   821.90     0  02:19           0        1.74       0.008
  YS02001765           JUNCTION      0.00   821.33     0  02:19           0        1.74       0.009
  YS02001767           JUNCTION      0.54   820.60     0  02:19      0.0152        1.74       0.006
  YS02001770           JUNCTION   1190.64  1190.64     0  02:14        1.94        1.98      -0.004
  YS02001774           JUNCTION      0.00   629.07     0  02:13           0       0.266       0.434
  YS02001779           JUNCTION      0.01   628.69     0  02:13    0.000142       0.224      -0.097
  YS02001783           JUNCTION      0.00  1166.97     0  02:12           0        4.41       0.006
  YS02001784           JUNCTION      1.06  1168.04     0  02:11      0.0302        4.44       0.013
  YS02001786           JUNCTION      0.06  1167.95     0  02:12      0.0016        4.45       0.016
  YS02001788           JUNCTION      0.07  1168.09     0  02:11     0.00202        4.45       0.006
  YS02001790           JUNCTION      0.15  1181.23     0  02:11     0.00442        4.45       0.001
  YS02001791           JUNCTION      0.00  1295.01     0  02:13           0        4.45       0.001
  YS02001793           JUNCTION      0.00  1263.42     0  02:13           0        4.45      -0.002
  YS02001882           JUNCTION      0.00    37.55     0  02:02           0      0.0128       5.423
  YS02001884           JUNCTION      0.00    47.93     0  02:02           0      0.0483       5.503
  YS02001887           JUNCTION    912.60   912.63     0  02:13        1.33        1.36       0.331
  YS02001890           JUNCTION      0.00   912.99     0  02:13           0        1.32       0.393
  YS02001895           JUNCTION      0.00   517.27     0  02:14           0        1.18       0.147
  YS02001898           JUNCTION      0.00   517.38     0  02:14           0        1.18       0.024
  YS02001901           JUNCTION      0.00   517.44     0  02:14           0        1.18       0.282
  YS02001904           JUNCTION      0.00   517.34     0  02:14           0        1.19       0.243
  YS02001907           JUNCTION      0.00  2164.05     0  02:14           0        4.08       0.444
  YS02001910           JUNCTION      0.00  1590.20     0  02:14           0        2.89       0.251
  YS02001915           JUNCTION   1065.33  1589.82     0  02:14        1.84        2.92       0.057
  YS02001918           JUNCTION      0.00   529.02     0  02:14           0         1.1       0.028
  YS02001920           JUNCTION      2.87   528.82     0  02:14      0.0818        1.09       0.086
  YS02001923           JUNCTION      0.04   526.01     0  02:14     0.00107       0.992      -0.026
  YS02001926           JUNCTION      0.05   525.76     0  02:14     0.00149       0.977       0.014
  YS02001929           JUNCTION    519.86   519.86     0  02:14       0.969        0.97      -0.072
  YS02006553           JUNCTION      0.00   799.37     0  02:30           0        2.54       0.470
  YS02006556           JUNCTION      0.00   799.26     0  02:30           0        2.54       0.326
  YS02006558           JUNCTION   1222.66  1222.66     0  02:13        1.94        4.45       0.074
  YS02006561           JUNCTION      0.00  1167.10     0  02:11           0        4.41       0.004
  YS02163301           JUNCTION      0.00   977.52     0  02:33           0        4.01       0.043
  YS02163601           JUNCTION      0.11  1360.05     0  02:04     0.00313        5.39       0.095
  YS02164001           JUNCTION      0.00  1359.10     0  02:04           0        5.39       0.048
  CC-1                 OUTFALL       0.00   683.00     0  00:00           0        5.24       0.000
  CC-2                 OUTFALL       0.00   683.00     0  00:00           0        5.24       0.000
  JK-1                 OUTFALL       0.00  1000.00     0  00:00           0        1.69       0.000
  JK-2                 OUTFALL       0.00  1000.00     0  00:00           0        1.69       0.000
  WSC                  OUTFALL       0.00   546.49     0  03:13           0         5.5       0.000
  CC-storage           STORAGE       0.00  3454.38     0  02:15           0        14.3      -0.326
  JK-storage           STORAGE       0.00  1303.59     0  02:13           0         4.6      -7.977
  
  
  **********************
  Node Surcharge Summary
  **********************
  
  Surcharging occurs when water rises above the top of the highest conduit.
  ---------------------------------------------------------------------
                                               Max. Height   Min. Depth
                                   Hours       Above Crown    Below Rim
  Node                 Type      Surcharged         Meters       Meters
  ---------------------------------------------------------------------
  WS02006109           JUNCTION        2.07          0.189        1.631
  WS02006110           JUNCTION        0.08          0.040        1.810
  WS02006112           JUNCTION        1.44          0.079        1.601
  WS02006228           JUNCTION        2.06          0.250        1.950
  WS02006229           JUNCTION        2.09          0.282        2.168
  WS02006230           JUNCTION        0.07          0.114        1.456
  WS02006231           JUNCTION        1.10          0.937        0.593
  WS02006232           JUNCTION        2.16          1.038        0.442
  WS02006234           JUNCTION        1.72          1.240        0.000
  WS02006235           JUNCTION        2.00          1.290        0.000
  WS02006238           JUNCTION        2.11          1.430        0.000
  WS02006239           JUNCTION        2.02          1.290        0.000
  WS02006240           JUNCTION        1.99          1.390        0.000
  WS02006242           JUNCTION        2.13          0.820        0.000
  WS02006243           JUNCTION        1.94          0.770        0.000
  WS02006245           JUNCTION        1.92          0.850        0.000
  WS02006247           JUNCTION        1.97          0.760        0.000
  WS02006248           JUNCTION        1.89          0.380        0.000
  WS02006249           JUNCTION        1.93          0.390        0.000
  WS02006251           JUNCTION        1.48          1.049        0.131
  WS02006252           JUNCTION        2.64          1.100        0.000
  WS02006256           JUNCTION        6.85          2.050        0.000
  YS02001580           JUNCTION        0.70          0.450        0.000
  YS02001583           JUNCTION        0.70          0.500        0.000
  YS02001586           JUNCTION        0.80          0.510        0.000
  YS02001590           JUNCTION        0.89          0.750        0.000
  YS02001593           JUNCTION        0.89          0.708        0.132
  YS02001596           JUNCTION        1.02          0.954        0.116
  YS02001600           JUNCTION        1.21          1.190        0.000
  YS02001601           JUNCTION        1.55          1.440        0.000
  YS02001602           JUNCTION        1.44          1.270        0.000
  YS02001605           JUNCTION        1.38          1.180        0.000
  YS02001607           JUNCTION        0.81          0.646        0.034
  YS02001610           JUNCTION        0.85          0.680        0.000
  YS02001613           JUNCTION        0.80          0.668        0.032
  YS02001616           JUNCTION        0.75          0.609        0.001
  YS02001619           JUNCTION        0.74          0.610        0.000
  YS02001622           JUNCTION        0.73          0.590        0.030
  YS02001625           JUNCTION        0.96          0.780        0.000
  YS02001629           JUNCTION        0.61          0.470        0.000
  YS02001633           JUNCTION        0.96          1.010        0.050
  YS02001641           JUNCTION        0.82          0.949        0.151
  YS02001644           JUNCTION        0.74          0.920        0.000
  YS02001647           JUNCTION        0.46          0.765        0.135
  YS02001649           JUNCTION        0.50          0.990        0.060
  YS02001652           JUNCTION        0.36          0.827        0.303
  YS02001655           JUNCTION        0.28          0.951        0.249
  YS02001658           JUNCTION        0.21          0.524        0.776
  YS02001661           JUNCTION        0.05          0.201        1.189
  YS02001748           JUNCTION        0.13          0.745        0.445
  YS02001751           JUNCTION        0.23          0.754        0.446
  YS02001754           JUNCTION        0.28          0.750        0.400
  YS02001757           JUNCTION        0.48          1.008        0.202
  YS02001759           JUNCTION        0.42          1.010        0.200
  YS02001762           JUNCTION        0.40          0.989        0.161
  YS02001765           JUNCTION        0.38          0.955        0.145
  YS02001767           JUNCTION        0.37          0.934        0.096
  YS02001770           JUNCTION        0.36          0.920        0.000
  YS02001774           JUNCTION        0.40          1.010        0.040
  YS02001779           JUNCTION        0.31          0.680        0.000
  YS02001783           JUNCTION        0.61          0.547        1.053
  YS02001784           JUNCTION        0.58          0.369        1.121
  YS02001786           JUNCTION        0.46          0.113        1.317
  YS02001882           JUNCTION        0.54          0.662        0.168
  YS02001884           JUNCTION        0.56          0.699        0.171
  YS02001887           JUNCTION        0.60          0.802        0.148
  YS02001890           JUNCTION        0.61          0.760        0.000
  YS02001895           JUNCTION        0.53          0.567        0.183
  YS02001898           JUNCTION        0.52          0.534        0.206
  YS02001901           JUNCTION        0.58          0.677        0.193
  YS02001904           JUNCTION        0.57          0.642        0.208
  YS02001907           JUNCTION        0.87          0.950        0.000
  YS02001910           JUNCTION        0.64          1.019        0.081
  YS02001915           JUNCTION        0.54          0.975        0.025
  YS02001918           JUNCTION        0.45          0.810        0.000
  YS02001920           JUNCTION        0.46          1.117        0.023
  YS02001923           JUNCTION        0.14          0.820        0.000
  YS02001926           JUNCTION        0.18          0.900        0.000
  YS02001929           JUNCTION        0.01          0.780        0.000
  YS02006553           JUNCTION        0.89          0.993        0.197
  YS02006556           JUNCTION        0.75          0.950        0.400
  YS02006558           JUNCTION        0.73          0.933        0.467
  YS02006561           JUNCTION        0.41          0.276        0.874
  YS02163301           JUNCTION        0.94          0.926        0.104
  YS02163601           JUNCTION        1.00          1.045        0.035
  YS02164001           JUNCTION        0.84          0.952        0.148
  
  
  *********************
  Node Flooding Summary
  *********************
  
  Flooding refers to all water that overflows a node, whether it ponds or not.
  --------------------------------------------------------------------------
                                                             Total   Maximum
                                 Maximum   Time of Max       Flood    Ponded
                        Hours       Rate    Occurrence      Volume     Depth
  Node                 Flooded       LPS   days hr:min    10^6 ltr    Meters
  --------------------------------------------------------------------------
  WS02006234              0.01      6.76      0  03:11       0.000     0.000
  WS02006235              0.01     17.40      0  03:11       0.000     0.000
  WS02006238              0.01     12.58      0  03:11       0.000     0.000
  WS02006239              0.01      9.06      0  03:11       0.000     0.000
  WS02006240              0.01     12.54      0  03:11       0.000     0.000
  WS02006242              0.02     97.02      0  01:43       0.001     0.000
  WS02006243              0.01    151.19      0  01:50       0.000     0.000
  WS02006245              0.01     65.24      0  01:53       0.000     0.000
  WS02006247              0.01    257.93      0  01:45       0.000     0.000
  WS02006248              0.40    214.10      0  01:50       0.012     0.000
  WS02006249              1.33    180.92      0  01:49       0.125     0.000
  WS02006252              0.01    324.75      0  01:46       0.002     0.000
  WS02006256              1.49    294.81      0  03:02       0.711     0.000
  YS02001580              0.01     32.68      0  02:00       0.000     0.000
  YS02001583              0.01     57.24      0  02:00       0.000     0.000
  YS02001586              0.55    518.90      0  02:15       0.466     0.000
  YS02001590              0.01      4.80      0  02:00       0.000     0.000
  YS02001600              0.01      1.56      0  02:00       0.000     0.000
  YS02001601              0.72   1388.71      0  02:14       1.578     0.000
  YS02001602              0.50     61.90      0  02:11       0.104     0.000
  YS02001605              0.01      0.21      0  02:10       0.000     0.000
  YS02001610              0.45    833.46      0  02:15       0.777     0.000
  YS02001619              0.01      0.91      0  02:10       0.000     0.000
  YS02001625              0.39   1421.13      0  02:15       1.145     0.000
  YS02001629              0.16    114.38      0  02:13       0.040     0.000
  YS02001644              0.19   1135.46      0  02:13       0.427     0.000
  YS02001770              0.01      1.80      0  02:09       0.000     0.000
  YS02001779              0.17    628.68      0  02:13       0.207     0.000
  YS02001890              0.20    396.55      0  02:13       0.130     0.000
  YS02001907              0.40   2164.03      0  02:14       1.545     0.000
  YS02001918              0.01    104.44      0  02:06       0.001     0.000
  YS02001923              0.01    115.12      0  02:06       0.000     0.000
  YS02001926              0.01    197.06      0  02:06       0.000     0.000
  YS02001929              0.01    248.67      0  02:06       0.001     0.000
  
  
  **********************
  Storage Volume Summary
  **********************
  
  ------------------------------------------------------------------------------------------------
                         Average    Avg   Evap  Exfil     Maximum    Max    Time of Max    Maximum
                          Volume   Pcnt   Pcnt   Pcnt      Volume   Pcnt     Occurrence    Outflow
  Storage Unit           1000 m³   Full   Loss   Loss     1000 m³   Full    days hr:min        LPS
  ------------------------------------------------------------------------------------------------
  CC-storage               0.730   11.4    0.0    0.0       2.738   42.7       0  02:44    1783.53
  JK-storage               0.001    0.4    0.0    0.0       0.150   51.6       0  00:00    2300.00
  
  
  ***********************
  Outfall Loading Summary
  ***********************
  
  -----------------------------------------------------------
                         Flow       Avg       Max       Total
                         Freq      Flow      Flow      Volume
  Outfall Node           Pcnt       LPS       LPS    10^6 ltr
  -----------------------------------------------------------
  CC-1                  47.79    683.00    683.00       5.245
  CC-2                  47.79    683.00    683.00       5.245
  JK-1                  12.53    998.52   1000.00       1.688
  JK-2                  12.53    998.52   1000.00       1.688
  WSC                   99.95    277.59    546.49       5.502
  -----------------------------------------------------------
  System                44.12   3640.63   3897.03      19.367
  
  
  ********************
  Link Flow Summary
  ********************
  
  -----------------------------------------------------------------------------
                                 Maximum  Time of Max   Maximum    Max/    Max/
                                  |Flow|   Occurrence   |Veloc|    Full    Full
  Link                 Type          LPS  days hr:min     m/sec    Flow   Depth
  -----------------------------------------------------------------------------
  1                    CONDUIT    546.49     0  03:13      2.81    0.19    0.30
  WS02003060WS02003069 CONDUIT    545.74     0  03:10      1.64    0.21    0.34
  WS02003066WSF200     CONDUIT    528.77     0  03:10      2.84    0.09    0.22
  WS02003067WS02003066 CONDUIT    528.67     0  03:09      1.20    0.17    0.41
  WS02003069WS02003072 CONDUIT    545.31     0  03:11      1.36    0.26    0.38
  WS02003072WS02003073 CONDUIT    545.01     0  03:12      1.43    1.18    0.37
  WS02004401WS02004402 CONDUIT    533.72     0  03:05      1.22    0.64    0.88
  WS02004402WS02004403 CONDUIT    535.12     0  03:07      1.24    0.77    0.90
  WS02004403WS02004404 CONDUIT    545.89     0  03:07      1.24    0.39    0.95
  WS02004404WS02004405 CONDUIT    590.52     0  03:07      1.45    5.79    0.97
  WS02004405WS02004406 CONDUIT    537.01     0  03:08      1.46    1.06    0.96
  WS02004406WS02004407 CONDUIT    533.06     0  03:08      1.03    0.24    0.62
  WS02004407WS02004409 CONDUIT    532.67     0  03:08      1.59    0.19    0.48
  WS02004409WS02004410 CONDUIT    531.73     0  03:08      1.06    0.69    0.67
  WS02004410WS02004411 CONDUIT    529.78     0  03:08      1.12    0.72    0.68
  WS02004411WS02004412 CONDUIT    529.81     0  03:09      1.22    0.75    0.69
  WS02004412WS02004413 CONDUIT    528.73     0  03:09      1.22    0.35    0.77
  WS02004413WS02003067 CONDUIT    528.41     0  03:09      1.10    0.23    0.59
  WS02006109WS02006110 CONDUIT    547.90     0  03:04      1.09    1.05    1.00
  WS02006110WS02006113 CONDUIT    549.74     0  03:03      1.30    0.50    0.79
  WS02006111WS02006112 CONDUIT    542.71     0  03:06      1.95    0.26    0.67
  WS02006112WS02006115 CONDUIT    542.02     0  03:04      0.82    0.32    0.88
  WS02006113WS02006111 CONDUIT    562.14     0  03:04      2.46    0.67    0.46
  WS02006115WS02006116 CONDUIT    535.95     0  03:04      1.29    0.69    0.78
  WS02006116WS02004401 CONDUIT    535.16     0  03:04      1.21    0.74    0.86
  WS02006228WS02006109 CONDUIT    546.13     0  03:04      1.09    2.39    1.00
  WS02006229WS02006228 CONDUIT    545.70     0  03:04      1.12    1.81    1.00
  WS02006230WS02006229 CONDUIT    545.25     0  03:04      1.42   12.13    1.00
  WS02006231WS02006230 CONDUIT    578.20     0  03:11      1.50    8.77    1.00
  WS02006232WS02006231 CONDUIT    572.18     0  03:11      1.49    1.20    1.00
  WS02006234WS02006232 CONDUIT    561.60     0  03:11      1.46    1.14    1.00
  WS02006235WS02006234 CONDUIT    552.35     0  03:02      1.44    5.83    1.00
  WS02006238WS02006235 CONDUIT    450.81     0  03:31      1.45    1.01    1.00
  WS02006239WS02006238 CONDUIT    427.09     0  03:31      1.11    1.37    1.00
  WS02006240WS02006239 CONDUIT    420.99     0  03:23      1.26    1.32    1.00
  WS02006242WS02006240 CONDUIT    421.04     0  03:31      1.16    1.67    1.00
  WS02006243WS02006242 CONDUIT    421.97     0  03:31      1.43    0.90    1.00
  WS02006245WS02006243 CONDUIT    457.69     0  01:50      1.45    1.35    1.00
  WS02006247WS02006245 CONDUIT    496.23     0  01:50      1.43    3.93    1.00
  WS02006248WS02006247 CONDUIT    502.75     0  01:50      1.45    1.09    1.00
  WS02006249WS02006248 CONDUIT    569.18     0  01:50      1.50    3.12    1.00
  WS02006251WS02006249 CONDUIT    538.97     0  01:49      1.99    1.55    1.00
  WS02006252WS02006251 CONDUIT    412.60     0  01:48     26.93    1.51    1.00
  WS02006256WS02006235 CONDUIT    288.91     0  00:00      4.23    3.06    1.00
  WSF200WS02003060     CONDUIT    529.28     0  03:10      2.05    0.12    0.28
  YS02001580YS02001583 CONDUIT     75.60     0  02:00      0.54    0.29    1.00
  YS02001583YS02001586 CONDUIT    128.73     0  01:59      0.54    0.19    1.00
  YS02001586YS02001590 CONDUIT    317.97     0  02:09      1.28    0.56    1.00
  YS02001590YS02001593 CONDUIT    317.85     0  02:09      1.12    2.00    1.00
  YS02001593YS02001596 CONDUIT    317.84     0  02:13      1.77    0.50    1.00
  YS02001596YS02001600 CONDUIT    317.87     0  02:37      1.26    0.62    1.00
  YS02001600YS02001601 CONDUIT    317.87     0  02:10      1.12    0.55    1.00
  YS02001601YS02001602 CONDUIT    511.00     0  02:42      1.81    1.85    1.00
  YS02001602YS02001605 CONDUIT    510.88     0  02:42      1.81   10.81    1.00
  YS02001605YS02001607 CONDUIT    511.06     0  02:42      1.81    2.80    1.00
  YS02001607YS02001610 CONDUIT    511.76     0  02:42      0.65    0.49    1.00
  YS02001610YS02001613 CONDUIT    511.64     0  02:42      0.65    0.59    1.00
  YS02001613YS02001616 CONDUIT    511.47     0  02:42      0.65    0.44    1.00
  YS02001616YS02001619 CONDUIT    511.60     0  02:42      0.67    0.89    1.00
  YS02001619YS02001622 CONDUIT    997.16     0  02:14      1.27    1.47    1.00
  YS02001622YS02001625 CONDUIT    997.00     0  02:14      1.27    0.53    1.00
  YS02001625YS02001629 CONDUIT    977.53     0  02:33      1.24    0.46    1.00
  YS02001629YS02163301 CONDUIT    977.52     0  02:33      1.24    1.20    1.00
  YS02001633YS02163601 CONDUIT   1359.94     0  02:04      1.73    1.43    1.00
  YS02001641YS02001644 CONDUIT   1358.06     0  02:04      1.73    4.39    1.00
  YS02001644YS02001647 CONDUIT   1745.61     0  02:04      2.23    1.03    1.00
  YS02001647YS02001649 CONDUIT   1756.78     0  02:04      2.29    0.93    1.00
  YS02001649YS02001757 CONDUIT   1999.74     0  02:05      2.55    1.21    1.00
  YS02001652YS02001649 CONDUIT    989.47     0  02:13      1.26    0.49    1.00
  YS02001655YS02001652 CONDUIT    989.31     0  02:13      1.26    0.48    1.00
  YS02001658YS02001655 CONDUIT    989.50     0  02:13      1.81    0.42    1.00
  YS02001661YS02001658 CONDUIT    989.13     0  02:13      2.27    0.39    1.00
  YS02001664YS02001661 CONDUIT    988.06     0  02:13      2.25    0.31    0.80
  YS02001745YS02001748 CONDUIT    624.68     0  02:13      2.12    0.24    0.91
  YS02001748YS02001751 CONDUIT    625.40     0  02:13      1.63    0.32    1.00
  YS02001751YS02001754 CONDUIT    625.33     0  02:13      1.31    0.30    1.00
  YS02001754YS02001757 CONDUIT    626.15     0  02:13      0.80    0.25    1.00
  YS02001757CaochengTiaoxuchi CONDUIT   3454.38     0  02:15      6.91    1.50    0.94
  YS02001759YS02001757 CONDUIT   1417.51     0  02:13      1.80    1.01    1.00
  YS02001762YS02001759 CONDUIT    822.45     0  02:19      1.05    0.95    1.00
  YS02001765YS02001762 CONDUIT    821.90     0  02:19      1.05    0.77    1.00
  YS02001767YS02001765 CONDUIT    821.33     0  02:19      1.05    1.03    1.00
  YS02001770YS02001767 CONDUIT    820.07     0  02:19      1.04    3.25    1.00
  YS02001774YS02001770 CONDUIT    629.07     0  02:13      0.80    0.40    1.00
  YS02001779YS02001774 CONDUIT    628.69     0  02:13      0.80    0.32    1.00
  YS02001783YS02001784 CONDUIT   1166.98     0  02:11      2.32    1.61    1.00
  YS02001784YS02001785 CONDUIT   1167.90     0  02:12      2.32    2.72    1.00
  YS02001786YS02001788 CONDUIT   1168.01     0  02:11      2.49    2.25    0.89
  YS02001788YS02001790 CONDUIT   1181.08     0  02:11      2.74    0.87    0.84
  YS02001790YS02001791 CONDUIT   1295.01     0  02:13      3.44    1.41    0.71
  YS02001791YS02001793 CONDUIT   1263.42     0  02:13      6.38    0.54    0.43
  YS02001793JiankangQianchi CONDUIT   1303.59     0  02:13     24.49    0.10    0.50
  YS02001882YS02001884 CONDUIT     37.55     0  02:02      0.14    0.04    1.00
  YS02001884YS02001887 CONDUIT     47.93     0  02:02      0.10    0.06    1.00
  YS02001887YS02001890 CONDUIT    912.99     0  02:13      1.16    1.56    1.00
  YS02001890YS02001895 CONDUIT    517.27     0  02:14      0.66    0.24    1.00
  YS02001895YS02001898 CONDUIT    517.38     0  02:14      0.66    0.90    1.00
  YS02001898YS02001901 CONDUIT    517.44     0  02:14      0.66    0.33    1.00
  YS02001901YS02001904 CONDUIT    517.34     0  02:14      0.66    0.80    1.00
  YS02001904YS02001907 CONDUIT    517.41     0  02:14      0.66    0.18    1.00
  YS02001907YS02006553 CONDUIT    799.37     0  02:30      0.89    0.94    1.00
  YS02001910YS02001907 CONDUIT   1590.49     0  02:14      2.03    0.90    1.00
  YS02001915YS02001910 CONDUIT   1590.20     0  02:14      2.02    0.79    1.00
  YS02001918YS02001915 CONDUIT    528.82     0  02:14      0.67    0.29    1.00
  YS02001920YS02001918 CONDUIT    529.02     0  02:14      0.67    0.51    1.00
  YS02001923YS02001920 CONDUIT    525.95     0  02:14      0.70    0.24    1.00
  YS02001926YS02001923 CONDUIT    525.97     0  02:14      0.94    0.75    1.00
  YS02001929YS02001926 CONDUIT    525.70     0  02:14      1.08    0.25    1.00
  YS02006553YS02006556 CONDUIT    799.26     0  02:30      1.02    0.68    1.00
  YS02006556YS02006558 CONDUIT    800.01     0  02:30      1.02    0.63    1.00
  YS02006558YS02006561 CONDUIT   1167.10     0  02:11      4.13    2.58    1.00
  YS02006561YS02001783 CONDUIT   1166.97     0  02:12      2.32    0.60    1.00
  YS02163301YS02001633 CONDUIT    977.49     0  02:33      1.24    0.92    1.00
  YS02163601YS02164001 CONDUIT   1359.10     0  02:04      1.73    1.20    1.00
  YS02164001YS02001641 CONDUIT   1357.57     0  02:04      1.73    1.85    1.00
  CC-R1                PUMP       683.00     0  00:00              1.00
  CC-R2                PUMP       683.00     0  00:00              1.00
  CC-S1                PUMP       200.00     0  00:00              1.00
  CC-S2                PUMP       200.00     0  00:00              1.00
  JK-R1                PUMP      1000.00     0  00:00              1.00
  JK-R2                PUMP      1000.00     0  00:00              1.00
  JK-S                 PUMP       300.00     0  00:00              1.00
  
  
  ***************************
  Flow Classification Summary
  ***************************
  
  -------------------------------------------------------------------------------------
                      Adjusted    ---------- Fraction of Time in Flow Class ---------- 
                       /Actual         Up    Down  Sub   Sup   Up    Down  Norm  Inlet 
  Conduit               Length    Dry  Dry   Dry   Crit  Crit  Crit  Crit  Ltd   Ctrl  
  -------------------------------------------------------------------------------------
  1                       1.00   0.00  0.00  0.00  0.00  1.00  0.00  0.00  0.35  0.00
  WS02003060WS02003069    1.00   0.00  0.00  0.00  0.98  0.02  0.00  0.00  0.71  0.00
  WS02003066WSF200        1.00   0.05  0.00  0.00  0.00  0.95  0.00  0.00  0.87  0.00
  WS02003067WS02003066    1.00   0.05  0.00  0.00  0.95  0.00  0.00  0.00  0.00  0.00
  WS02003069WS02003072    1.00   0.00  0.00  0.00  0.99  0.01  0.00  0.00  0.73  0.00
  WS02003072WS02003073    1.00   0.00  0.00  0.00  0.00  0.00  0.00  1.00  0.00  0.00
  WS02004401WS02004402    1.00   0.02  0.00  0.00  0.98  0.00  0.00  0.00  0.00  0.00
  WS02004402WS02004403    1.00   0.02  0.00  0.00  0.98  0.00  0.00  0.00  0.00  0.00
  WS02004403WS02004404    1.00   0.00  0.03  0.00  0.97  0.00  0.00  0.00  0.00  0.00
  WS02004404WS02004405    1.00   0.00  0.00  0.00  1.00  0.00  0.00  0.00  0.02  0.00
  WS02004405WS02004406    1.00   0.00  0.00  0.00  1.00  0.00  0.00  0.00  0.00  0.00
  WS02004406WS02004407    1.00   0.00  0.03  0.00  0.97  0.00  0.00  0.00  0.00  0.00
  WS02004407WS02004409    1.00   0.03  0.00  0.00  0.95  0.01  0.00  0.00  0.96  0.00
  WS02004409WS02004410    1.00   0.03  0.00  0.00  0.96  0.00  0.00  0.00  0.00  0.00
  WS02004410WS02004411    1.00   0.04  0.00  0.00  0.96  0.00  0.00  0.00  0.00  0.00
  WS02004411WS02004412    1.00   0.04  0.00  0.00  0.96  0.00  0.00  0.00  0.00  0.00
  WS02004412WS02004413    1.00   0.04  0.00  0.00  0.96  0.00  0.00  0.00  0.00  0.00
  WS02004413WS02003067    1.00   0.04  0.01  0.00  0.00  0.00  0.95  0.00  0.00  0.00
  WS02006109WS02006110    1.00   0.00  0.01  0.00  0.98  0.00  0.01  0.00  0.00  0.00
  WS02006110WS02006113    1.00   0.01  0.01  0.00  0.98  0.00  0.00  0.00  0.00  0.00
  WS02006111WS02006112    1.00   0.02  0.00  0.00  0.98  0.00  0.00  0.00  0.98  0.00
  WS02006112WS02006115    1.00   0.02  0.00  0.00  0.97  0.00  0.00  0.00  0.00  0.00
  WS02006113WS02006111    1.00   0.02  0.00  0.00  0.00  0.98  0.00  0.00  0.14  0.00
  WS02006115WS02006116    1.00   0.02  0.00  0.00  0.97  0.00  0.00  0.01  0.00  0.00
  WS02006116WS02004401    1.00   0.02  0.00  0.00  0.98  0.00  0.00  0.00  0.00  0.00
  WS02006228WS02006109    1.00   0.00  0.00  0.00  1.00  0.00  0.00  0.00  0.01  0.00
  WS02006229WS02006228    1.00   0.00  0.00  0.00  0.99  0.00  0.00  0.01  0.00  0.00
  WS02006230WS02006229    1.00   0.00  0.00  0.00  0.99  0.00  0.00  0.01  0.03  0.00
  WS02006231WS02006230    1.00   0.00  0.00  0.00  0.28  0.00  0.72  0.00  0.00  0.00
  WS02006232WS02006231    1.00   0.00  0.00  0.00  0.99  0.00  0.01  0.00  0.00  0.00
  WS02006234WS02006232    1.00   0.00  0.00  0.00  1.00  0.00  0.00  0.00  0.01  0.00
  WS02006235WS02006234    1.00   0.00  0.00  0.00  0.95  0.00  0.05  0.00  0.00  0.00
  WS02006238WS02006235    1.00   0.00  0.00  0.00  1.00  0.00  0.00  0.00  0.01  0.00
  WS02006239WS02006238    1.00   0.00  0.00  0.00  1.00  0.00  0.00  0.00  0.07  0.00
  WS02006240WS02006239    1.00   0.00  0.00  0.00  0.91  0.00  0.00  0.08  0.22  0.00
  WS02006242WS02006240    1.00   0.00  0.00  0.00  0.89  0.00  0.11  0.00  0.00  0.00
  WS02006243WS02006242    1.00   0.00  0.00  0.00  0.98  0.00  0.00  0.02  0.55  0.00
  WS02006245WS02006243    1.00   0.00  0.00  0.00  0.69  0.00  0.00  0.31  0.02  0.00
  WS02006247WS02006245    1.00   0.00  0.00  0.00  0.98  0.00  0.00  0.02  0.00  0.00
  WS02006248WS02006247    1.00   0.00  0.00  0.00  0.98  0.00  0.00  0.02  0.30  0.00
  WS02006249WS02006248    1.00   0.00  0.00  0.00  0.45  0.00  0.55  0.00  0.00  0.00
  WS02006251WS02006249    1.00   0.00  0.00  0.00  0.99  0.01  0.00  0.00  0.56  0.00
  WS02006252WS02006251    1.00   0.00  0.47  0.00  0.19  0.00  0.34  0.00  0.00  0.00
  WS02006256WS02006235    1.00   0.00  0.00  0.00  0.96  0.04  0.00  0.00  0.01  0.00
  WSF200WS02003060        1.00   0.00  0.05  0.00  0.27  0.68  0.00  0.00  0.64  0.00
  YS02001580YS02001583    1.00   0.25  0.55  0.00  0.20  0.00  0.00  0.00  0.64  0.00
  YS02001583YS02001586    1.00   0.40  0.34  0.00  0.26  0.00  0.00  0.00  0.64  0.00
  YS02001586YS02001590    1.00   0.13  0.00  0.00  0.45  0.04  0.00  0.38  0.38  0.00
  YS02001590YS02001593    1.00   0.13  0.01  0.00  0.13  0.00  0.74  0.00  0.00  0.00
  YS02001593YS02001596    1.00   0.13  0.00  0.00  0.15  0.01  0.00  0.70  0.02  0.00
  YS02001596YS02001600    1.00   0.14  0.00  0.00  0.22  0.01  0.00  0.63  0.05  0.00
  YS02001600YS02001601    1.00   0.13  0.01  0.00  0.86  0.00  0.00  0.00  0.58  0.00
  YS02001601YS02001602    1.00   0.13  0.01  0.00  0.87  0.00  0.00  0.00  0.00  0.00
  YS02001602YS02001605    1.00   0.13  0.00  0.00  0.86  0.00  0.00  0.00  0.00  0.00
  YS02001605YS02001607    1.00   0.14  0.00  0.00  0.86  0.00  0.00  0.00  0.00  0.00
  YS02001607YS02001610    1.00   0.13  0.01  0.00  0.86  0.00  0.00  0.00  0.01  0.00
  YS02001610YS02001613    1.00   0.13  0.00  0.00  0.87  0.00  0.00  0.00  0.00  0.00
  YS02001613YS02001616    1.00   0.13  0.00  0.00  0.87  0.00  0.00  0.00  0.00  0.00
  YS02001616YS02001619    1.00   0.13  0.00  0.00  0.87  0.00  0.00  0.00  0.00  0.00
  YS02001619YS02001622    1.00   0.13  0.00  0.00  0.87  0.00  0.00  0.00  0.27  0.00
  YS02001622YS02001625    1.00   0.13  0.00  0.00  0.87  0.00  0.00  0.00  0.04  0.00
  YS02001625YS02001629    1.00   0.13  0.04  0.00  0.18  0.00  0.65  0.00  0.00  0.00
  YS02001629YS02163301    1.00   0.15  0.01  0.00  0.84  0.00  0.00  0.00  0.00  0.00
  YS02001633YS02163601    1.00   0.00  0.01  0.00  0.99  0.00  0.00  0.00  0.15  0.00
  YS02001641YS02001644    1.00   0.00  0.01  0.00  0.99  0.00  0.00  0.00  0.00  0.00
  YS02001644YS02001647    1.00   0.00  0.17  0.00  0.83  0.00  0.00  0.00  0.00  0.00
  YS02001647YS02001649    1.00   0.00  0.17  0.00  0.51  0.32  0.00  0.00  0.55  0.00
  YS02001649YS02001757    1.00   0.00  0.00  0.00  0.84  0.16  0.00  0.00  0.73  0.00
  YS02001652YS02001649    1.00   0.00  0.00  0.00  0.97  0.03  0.00  0.00  0.73  0.00
  YS02001655YS02001652    1.00   0.00  0.00  0.00  0.20  0.01  0.00  0.79  0.10  0.00
  YS02001658YS02001655    1.00   0.00  0.14  0.00  0.61  0.25  0.00  0.00  0.73  0.00
  YS02001661YS02001658    1.00   0.14  0.00  0.00  0.44  0.42  0.00  0.00  0.72  0.00
  YS02001664YS02001661    1.00   0.13  0.00  0.00  0.72  0.15  0.00  0.00  0.85  0.00
  YS02001745YS02001748    1.00   0.00  0.00  0.00  0.04  0.01  0.00  0.95  0.02  0.00
  YS02001748YS02001751    1.00   0.00  0.00  0.00  0.76  0.24  0.00  0.00  0.80  0.00
  YS02001751YS02001754    1.00   0.00  0.00  0.00  0.13  0.02  0.00  0.85  0.06  0.00
  YS02001754YS02001757    1.00   0.00  0.00  0.00  1.00  0.00  0.00  0.00  0.83  0.00
  YS02001757CaochengTiaoxuchi    1.00   0.00  0.00  0.00  0.15  0.85  0.00  0.00  0.12  0.00
  YS02001759YS02001757    1.00   0.00  0.00  0.00  1.00  0.00  0.00  0.00  0.64  0.00
  YS02001762YS02001759    1.00   0.00  0.00  0.00  1.00  0.00  0.00  0.00  0.05  0.00
  YS02001765YS02001762    1.00   0.00  0.00  0.00  1.00  0.00  0.00  0.00  0.71  0.00
  YS02001767YS02001765    1.00   0.00  0.00  0.00  1.00  0.00  0.00  0.00  0.00  0.00
  YS02001770YS02001767    1.00   0.00  0.00  0.00  1.00  0.00  0.00  0.00  0.00  0.00
  YS02001774YS02001770    1.00   0.00  0.13  0.00  0.71  0.00  0.15  0.00  0.03  0.00
  YS02001779YS02001774    1.00   0.00  0.00  0.00  1.00  0.00  0.00  0.00  0.77  0.00
  YS02001783YS02001784    1.00   0.00  0.18  0.00  0.82  0.00  0.00  0.00  0.54  0.00
  YS02001784YS02001785    1.00   0.00  0.00  0.00  1.00  0.00  0.00  0.00  0.16  0.00
  YS02001786YS02001788    1.00   0.00  0.00  0.00  0.79  0.21  0.00  0.00  0.00  0.00
  YS02001788YS02001790    1.00   0.00  0.00  0.00  0.21  0.79  0.00  0.00  0.79  0.00
  YS02001790YS02001791    1.00   0.00  0.00  0.00  0.01  0.99  0.00  0.00  0.16  0.00
  YS02001791YS02001793    1.00   0.00  0.00  0.00  0.00  1.00  0.00  0.00  0.01  0.00
  YS02001793JiankangQianchi    1.00   0.00  0.00  0.00  0.00  1.00  0.00  0.00  0.21  0.00
  YS02001882YS02001884    1.00   0.15  0.01  0.00  0.84  0.00  0.00  0.00  0.00  0.00
  YS02001884YS02001887    1.00   0.06  0.05  0.00  0.89  0.00  0.00  0.00  0.00  0.00
  YS02001887YS02001890    1.00   0.00  0.00  0.00  0.97  0.00  0.03  0.00  0.00  0.00
  YS02001890YS02001895    1.00   0.00  0.16  0.00  0.84  0.00  0.00  0.00  0.00  0.00
  YS02001895YS02001898    1.00   0.16  0.00  0.00  0.82  0.00  0.02  0.00  0.00  0.00
  YS02001898YS02001901    1.00   0.16  0.00  0.00  0.84  0.00  0.00  0.00  0.01  0.00
  YS02001901YS02001904    1.00   0.16  0.00  0.00  0.84  0.00  0.00  0.00  0.00  0.00
  YS02001904YS02001907    1.00   0.00  0.16  0.00  0.84  0.00  0.00  0.00  0.00  0.00
  YS02001907YS02006553    1.00   0.00  0.02  0.00  0.98  0.00  0.00  0.00  0.00  0.00
  YS02001910YS02001907    1.00   0.00  0.00  0.00  0.97  0.00  0.00  0.03  0.12  0.00
  YS02001915YS02001910    1.00   0.00  0.00  0.00  0.97  0.03  0.00  0.00  0.15  0.00
  YS02001918YS02001915    1.00   0.00  0.01  0.00  0.98  0.02  0.00  0.00  0.73  0.00
  YS02001920YS02001918    1.00   0.00  0.01  0.00  0.99  0.00  0.00  0.00  0.00  0.00
  YS02001923YS02001920    1.00   0.00  0.00  0.00  1.00  0.00  0.00  0.00  0.91  0.00
  YS02001926YS02001923    1.00   0.00  0.07  0.00  0.07  0.00  0.86  0.00  0.00  0.00
  YS02001929YS02001926    1.00   0.00  0.13  0.00  0.87  0.00  0.00  0.00  0.81  0.00
  YS02006553YS02006556    1.00   0.01  0.00  0.00  0.99  0.00  0.00  0.00  0.03  0.00
  YS02006556YS02006558    1.00   0.00  0.00  0.00  1.00  0.00  0.00  0.00  0.00  0.00
  YS02006558YS02006561    1.00   0.17  0.00  0.00  0.06  0.76  0.00  0.00  0.18  0.00
  YS02006561YS02001783    1.00   0.17  0.00  0.00  0.10  0.72  0.00  0.00  0.67  0.00
  YS02163301YS02001633    1.00   0.00  0.15  0.00  0.85  0.00  0.00  0.00  0.00  0.00
  YS02163601YS02164001    1.00   0.00  0.08  0.00  0.92  0.00  0.00  0.00  0.00  0.00
  YS02164001YS02001641    1.00   0.01  0.08  0.00  0.92  0.00  0.00  0.00  0.05  0.00
  
  
  *************************
  Conduit Surcharge Summary
  *************************
  
  ----------------------------------------------------------------------------
                                                           Hours        Hours 
                         --------- Hours Full --------   Above Full   Capacity
  Conduit                Both Ends  Upstream  Dnstream   Normal Flow   Limited
  ----------------------------------------------------------------------------
  WS02003072WS02003073        0.01      0.01      0.01      1.72         0.01
  WS02004404WS02004405        0.01      0.01      0.01      3.27         0.01
  WS02004405WS02004406        0.01      0.01      0.01      0.81         0.01
  WS02006109WS02006110        0.08      0.08      2.14      0.09         0.01
  WS02006110WS02006113        0.01      0.01      2.12      0.01         0.01
  WS02006111WS02006112        0.01      0.01      2.26      0.01         0.01
  WS02006112WS02006115        0.01      0.01      1.44      0.01         0.01
  WS02006228WS02006109        2.07      2.14      2.07      2.52         2.07
  WS02006229WS02006228        2.06      2.09      2.06      2.33         2.05
  WS02006230WS02006229        2.21      2.27      2.21      4.24         2.21
  WS02006231WS02006230        0.07      0.07      1.34      3.56         0.01
  WS02006232WS02006231        1.05      1.05      2.16      1.29         0.01
  WS02006234WS02006232        1.99      1.99      2.16      0.78         0.81
  WS02006235WS02006234        1.65      1.70      1.98      3.23         0.25
  WS02006238WS02006235        2.05      2.05      2.18      0.01         0.08
  WS02006239WS02006238        2.09      2.15      2.11      2.05         1.31
  WS02006240WS02006239        1.98      2.03      2.02      2.03         1.30
  WS02006242WS02006240        1.99      1.99      2.19      2.36         0.03
  WS02006243WS02006242        1.98      1.98      2.13      0.01         0.34
  WS02006245WS02006243        1.91      1.94      1.93      2.08         1.19
  WS02006247WS02006245        1.92      1.99      1.92      2.72         1.68
  WS02006248WS02006247        1.90      1.92      1.96      0.01         0.62
  WS02006249WS02006248        1.88      1.89      1.92      2.62         0.02
  WS02006251WS02006249        1.91      1.98      1.92      2.45         1.70
  WS02006252WS02006251        2.64      2.64      2.64      2.64         0.01
  WS02006256WS02006235        2.45      3.32      5.79      1.85         0.07
  YS02001580YS02001583        0.69      0.70      0.72      0.01         0.01
  YS02001583YS02001586        0.70      0.70      0.80      0.01         0.01
  YS02001586YS02001590        0.81      0.81      0.89      0.01         0.01
  YS02001590YS02001593        0.89      0.89      0.91      0.96         0.01
  YS02001593YS02001596        0.90      0.90      1.02      0.01         0.01
  YS02001596YS02001600        1.08      1.08      1.21      0.01         0.01
  YS02001600YS02001601        1.27      1.27      1.55      0.01         0.01
  YS02001601YS02001602        1.44      1.44      1.59      1.24         0.01
  YS02001602YS02001605        1.38      1.38      1.44      2.41         0.01
  YS02001605YS02001607        1.34      1.38      1.34      1.51         1.34
  YS02001607YS02001610        0.81      0.81      0.85      0.01         0.01
  YS02001610YS02001613        0.80      0.80      0.85      0.01         0.01
  YS02001613YS02001616        0.75      0.75      0.80      0.01         0.01
  YS02001616YS02001619        0.74      0.74      0.75      0.01         0.05
  YS02001619YS02001622        0.73      0.74      0.73      0.94         0.71
  YS02001622YS02001625        0.73      0.73      0.96      0.01         0.01
  YS02001625YS02001629        0.61      0.61      0.96      0.01         0.01
  YS02001629YS02163301        0.93      0.93      0.94      0.43         0.40
  YS02001633YS02163601        0.96      0.96      1.00      0.56         0.56
  YS02001641YS02001644        0.74      0.82      0.74      1.62         0.73
  YS02001644YS02001647        0.46      0.46      0.74      0.03         0.01
  YS02001647YS02001649        0.46      0.46      0.50      0.01         0.01
  YS02001649YS02001757        0.48      0.50      0.48      0.46         0.33
  YS02001652YS02001649        0.38      0.38      0.50      0.01         0.01
  YS02001655YS02001652        0.28      0.28      0.36      0.01         0.01
  YS02001658YS02001655        0.21      0.21      0.28      0.01         0.01
  YS02001661YS02001658        0.05      0.05      0.21      0.01         0.01
  YS02001664YS02001661        0.01      0.01      0.10      0.01         0.01
  YS02001745YS02001748        0.01      0.01      0.13      0.01         0.01
  YS02001748YS02001751        0.18      0.18      0.23      0.01         0.01
  YS02001751YS02001754        0.23      0.23      0.28      0.01         0.01
  YS02001754YS02001757        0.30      0.30      0.48      0.01         0.01
  YS02001757CaochengTiaoxuchi        0.01      0.48      0.01      0.60         0.01
  YS02001759YS02001757        0.42      0.42      0.48      0.01         0.05
  YS02001762YS02001759        0.40      0.40      0.42      0.01         0.03
  YS02001765YS02001762        0.38      0.38      0.40      0.01         0.01
  YS02001767YS02001765        0.37      0.37      0.38      0.01         0.05
  YS02001770YS02001767        0.37      0.37      0.37      0.67         0.36
  YS02001774YS02001770        0.36      0.36      0.40      0.01         0.01
  YS02001779YS02001774        0.31      0.31      0.40      0.01         0.01
  YS02001783YS02001784        0.58      0.61      0.58      0.79         0.58
  YS02001784YS02001785        0.46      0.58      0.46      1.07         0.46
  YS02001786YS02001788        0.01      0.46      0.01      0.91         0.01
  YS02001790YS02001791        0.01      0.01      0.01      0.57         0.01
  YS02001882YS02001884        0.54      0.54      0.56      0.01         0.01
  YS02001884YS02001887        0.58      0.58      0.60      0.01         0.01
  YS02001887YS02001890        0.61      0.61      0.62      0.14         0.01
  YS02001890YS02001895        0.53      0.53      0.64      0.01         0.01
  YS02001895YS02001898        0.52      0.52      0.53      0.01         0.01
  YS02001898YS02001901        0.54      0.54      0.58      0.01         0.01
  YS02001901YS02001904        0.57      0.57      0.58      0.01         0.01
  YS02001904YS02001907        0.57      0.57      0.89      0.01         0.01
  YS02001907YS02006553        1.08      1.08      1.16      0.01         0.01
  YS02001910YS02001907        0.64      0.64      0.87      0.01         0.01
  YS02001915YS02001910        0.54      0.54      0.64      0.01         0.01
  YS02001918YS02001915        0.45      0.45      0.54      0.01         0.01
  YS02001920YS02001918        0.45      0.45      0.46      0.01         0.01
  YS02001923YS02001920        0.41      0.41      0.46      0.01         0.01
  YS02001926YS02001923        0.14      0.14      0.18      0.01         0.01
  YS02001929YS02001926        0.01      0.01      0.18      0.01         0.01
  YS02006553YS02006556        0.75      0.75      0.89      0.01         0.01
  YS02006556YS02006558        0.82      0.82      0.91      0.01         0.01
  YS02006558YS02006561        0.48      0.73      0.48      1.01         0.48
  YS02006561YS02001783        0.41      0.41      0.61      0.01         0.01
  YS02163301YS02001633        0.94      0.94      0.99      0.01         0.03
  YS02163601YS02164001        0.84      0.84      1.00      0.36         0.01
  YS02164001YS02001641        0.82      0.84      0.82      0.85         0.62
  
  
  ***************
  Pumping Summary
  ***************
  
  ---------------------------------------------------------------------------------------------------------
                                                  Min       Avg       Max     Total     Power    % Time Off
                        Percent   Number of      Flow      Flow      Flow    Volume     Usage    Pump Curve
  Pump                 Utilized   Start-Ups       LPS       LPS       LPS  10^6 ltr     Kw-hr    Low   High
  ---------------------------------------------------------------------------------------------------------
  CC-R1                   26.93           9      0.00    683.00    683.00     5.243     85.76    0.0  100.0
  CC-R2                   26.93           9      0.00    683.00    683.00     5.243     85.76    0.0  100.0
  CC-S1                   33.38          18      0.00    200.00    200.00     1.902     15.32    0.0   46.6
  CC-S2                   33.38          18      0.00    200.00    200.00     1.902     15.32    0.0   46.6
  JK-R1                    6.02         467      0.00    998.52   1000.00     1.711      4.15    0.0    0.0
  JK-R2                    6.02         467      0.00    998.52   1000.00     1.711      4.15    0.0    0.0
  JK-S                    19.72         709      0.00    296.77    300.00     1.633     37.43    0.0    0.0
  

  Analysis begun on:  Thu Jan 16 14:22:26 2025
  Analysis ended on:  Thu Jan 16 14:22:28 2025
  Total elapsed time: 00:00:02