
  EPA STORM WATER MANAGEMENT MODEL - VERSION 5.2 (Build 5.2.4)
  PYSWMM TOOLKIT API - VERSION v1.0 (2023-11-27)
  ------------------------------------------------------------

  WARNING 04: minimum elevation drop used for Conduit WS02004404WS02004405
  WARNING 03: negative offset ignored for Link YS02001904YS02001907
  
  ****************
  Analysis Options
  ****************
  Flow Units ............... LPS
  Process Models:
    Rainfall/Runoff ........ YES
    RDII ................... NO
    Snowmelt ............... NO
    Groundwater ............ NO
    Flow Routing ........... YES
    Ponding Allowed ........ NO
    Water Quality .......... NO
  Infiltration Method ...... HORTON
  Flow Routing Method ...... DYNWAVE
  Surcharge Method ......... EXTRAN
  Starting Date ............ 08/28/2015 08:00:00
  Ending Date .............. 08/28/2015 16:00:00
  Antecedent Dry Days ...... 8.0
  Report Time Step ......... 00:01:00
  Wet Time Step ............ 00:01:00
  Dry Time Step ............ 00:01:00
  Routing Time Step ........ 30.00 sec
  Variable Time Step ....... YES
  Maximum Trials ........... 8
  Number of Threads ........ 4
  Head Tolerance ........... 0.001500 m
  
  
  **************************        Volume         Depth
  Runoff Quantity Continuity     hectare-m            mm
  **************************     ---------       -------
  Total Precipitation ......         1.981        59.716
  Evaporation Loss .........         0.000         0.000
  Infiltration Loss ........         0.101         3.049
  Surface Runoff ...........         1.847        55.681
  Final Storage ............         0.033         0.998
  Continuity Error (%) .....        -0.019
  
  
  **************************        Volume        Volume
  Flow Routing Continuity        hectare-m      10^6 ltr
  **************************     ---------     ---------
  Dry Weather Inflow .......         0.025         0.248
  Wet Weather Inflow .......         1.847        18.467
  Groundwater Inflow .......         0.000         0.000
  RDII Inflow ..............         0.000         0.000
  External Inflow ..........         0.083         0.825
  External Outflow .........         1.725        17.253
  Flooding Loss ............         0.495         4.948
  Evaporation Loss .........         0.000         0.000
  Exfiltration Loss ........         0.000         0.000
  Initial Stored Volume ....         0.243         2.431
  Final Stored Volume ......         0.040         0.399
  Continuity Error (%) .....        -2.867
  
  
  *************************
  Highest Continuity Errors
  *************************
  Node WS02006256 (-15.62%)
  Node JK-storage (-8.52%)
  Node YS02001884 (5.34%)
  Node YS02001583 (-4.08%)
  
  
  ***************************
  Time-Step Critical Elements
  ***************************
  Link WS02006238WS02006235 (39.74%)
  Link YS02001793JiankangQianchi (28.14%)
  Link WS02003066WSF200 (6.53%)
  Link WS02004404WS02004405 (6.35%)
  Link YS02006556YS02006558 (2.22%)
  
  
  ********************************
  Highest Flow Instability Indexes
  ********************************
  Link WS02006256WS02006235 (42)
  Link WS02006229WS02006228 (41)
  Link WS02006113WS02006111 (38)
  Link WS02006252WS02006251 (38)
  Link WS02006235WS02006234 (31)
  
  
  *********************************
  Most Frequent Nonconverging Nodes
  *********************************
  Node CC-1 (47.46%)
  Node CC-2 (47.46%)
  Node JK-1 (47.46%)
  Node JK-2 (47.46%)
  Node WSC (47.46%)
  
  
  *************************
  Routing Time Step Summary
  *************************
  Minimum Time Step           :     0.01 sec
  Average Time Step           :     2.57 sec
  Maximum Time Step           :     6.43 sec
  % of Time in Steady State   :     0.00
  Average Iterations per Step :     5.38
  % of Steps Not Converging   :    47.46
  Time Step Frequencies       :
     30.000 - 13.228 sec      :     0.00 %
     13.228 -  5.833 sec      :     5.06 %
      5.833 -  2.572 sec      :    35.84 %
      2.572 -  1.134 sec      :    42.94 %
      1.134 -  0.500 sec      :    16.15 %
  
  
  ***************************
  Subcatchment Runoff Summary
  ***************************
  
  ------------------------------------------------------------------------------------------------------------------------------
                            Total      Total      Total      Total     Imperv       Perv      Total       Total     Peak  Runoff
                           Precip      Runon       Evap      Infil     Runoff     Runoff     Runoff      Runoff   Runoff   Coeff
  Subcatchment                 mm         mm         mm         mm         mm         mm         mm    10^6 ltr      LPS
  ------------------------------------------------------------------------------------------------------------------------------
  sub60                     59.72       0.00       0.00       1.81      51.34       5.36      56.70        0.75   508.97   0.950
  sub61                     59.72       0.00       0.00       2.63      48.43       7.52      55.95        1.03   707.81   0.937
  sub62                     59.72       0.00       0.00       1.21      53.65       3.57      57.22        1.57   997.72   0.958
  sub63                     59.72       0.00       0.00       4.90      41.43      12.42      53.85        1.22   807.41   0.902
  sub64                     59.72       0.00       0.00       2.47      49.55       6.49      56.04        1.35   818.65   0.938
  sub65                     59.72       0.00       0.00       2.14      50.69       5.63      56.32        1.55   914.39   0.943
  sub66                     59.72       0.00       0.00       6.10      41.32      11.22      52.53        2.45  1232.66   0.880
  sub67                     59.72       0.00       0.00       1.15      53.69       3.62      57.32        1.07   757.92   0.960
  sub68                     59.72       0.00       0.00       2.18      50.17       6.18      56.35        1.55  1023.86   0.944
  sub69                     59.72       0.00       0.00       1.97      50.64       6.99      57.63        2.13  1215.65   0.965
  sub70                     59.72       0.00       0.00       6.59      39.24      13.71      52.96        1.53   692.44   0.887
  sub71                     59.72       0.00       0.00       1.24      53.61       3.54      57.14        1.49   882.82   0.957
  sub72                     59.72       0.00       0.00       1.11      54.13       3.07      57.20        0.79   432.35   0.958
  
  
  ******************
  Node Depth Summary
  ******************
  
  ---------------------------------------------------------------------------------
                                 Average  Maximum  Maximum  Time of Max    Reported
                                   Depth    Depth      HGL   Occurrence   Max Depth
  Node                 Type       Meters   Meters   Meters  days hr:min      Meters
  ---------------------------------------------------------------------------------
  WS02003060           JUNCTION     0.24     0.38     5.31     0  03:10        0.38
  WS02003066           JUNCTION     0.20     0.30     5.85     0  03:09        0.30
  WS02003067           JUNCTION     0.50     0.70     6.02     0  03:09        0.70
  WS02003069           JUNCTION     0.27     0.43     5.01     0  03:11        0.43
  WS02003072           JUNCTION     0.33     0.50     4.87     0  03:11        0.50
  WS02003073           JUNCTION     0.19     0.30     4.36     0  03:12        0.30
  WS02004401           JUNCTION     0.61     0.87     6.87     0  03:07        0.87
  WS02004402           JUNCTION     0.64     0.90     6.86     0  03:07        0.90
  WS02004403           JUNCTION     0.66     0.91     6.84     0  03:07        0.91
  WS02004404           JUNCTION     0.73     1.00     6.85     0  03:09        0.99
  WS02004405           JUNCTION     0.72     0.96     6.81     0  03:07        0.96
  WS02004406           JUNCTION     0.73     0.95     6.78     0  03:07        0.95
  WS02004407           JUNCTION     0.18     0.29     6.61     0  03:08        0.29
  WS02004409           JUNCTION     0.40     0.66     6.43     0  03:10        0.66
  WS02004410           JUNCTION     0.42     0.68     6.40     0  03:10        0.68
  WS02004411           JUNCTION     0.44     0.69     6.37     0  03:09        0.69
  WS02004412           JUNCTION     0.46     0.69     6.33     0  03:11        0.69
  WS02004413           JUNCTION     0.62     0.85     6.32     0  03:09        0.85
  WS02006109           JUNCTION     0.68     1.04     7.66     0  03:04        1.00
  WS02006110           JUNCTION     0.67     0.98     7.56     0  03:04        0.93
  WS02006111           JUNCTION     0.18     0.29     6.99     0  03:05        0.29
  WS02006112           JUNCTION     0.77     1.08     6.96     0  03:04        1.06
  WS02006113           JUNCTION     0.28     0.46     7.35     0  03:05        0.46
  WS02006115           JUNCTION     0.50     0.77     6.91     0  03:06        0.77
  WS02006116           JUNCTION     0.58     0.85     6.89     0  03:09        0.85
  WS02006228           JUNCTION     0.68     1.08     7.73     0  03:04        1.08
  WS02006229           JUNCTION     0.65     1.09     7.79     0  03:02        1.09
  WS02006230           JUNCTION     0.66     1.20     7.95     0  03:02        1.18
  WS02006231           JUNCTION     0.46     1.57     8.69     0  02:07        1.15
  WS02006232           JUNCTION     0.61     1.65     8.69     0  02:07        1.44
  WS02006234           JUNCTION     0.54     1.96     9.12     0  01:54        1.96
  WS02006235           JUNCTION     0.59     2.00     9.16     0  01:54        2.00
  WS02006238           JUNCTION     0.62     2.15     9.29     0  01:54        2.15
  WS02006239           JUNCTION     0.59     2.00     9.21     0  02:18        2.00
  WS02006240           JUNCTION     0.55     2.06     9.36     0  02:07        1.93
  WS02006242           JUNCTION     0.61     1.55     8.82     0  01:48        1.55
  WS02006243           JUNCTION     0.53     1.48     8.90     0  01:50        1.48
  WS02006245           JUNCTION     0.53     1.56     9.04     0  02:13        1.56
  WS02006247           JUNCTION     0.55     1.47     8.97     0  01:56        1.47
  WS02006248           JUNCTION     0.52     1.10     8.69     0  01:44        1.10
  WS02006249           JUNCTION     0.54     1.09     8.69     0  01:44        1.09
  WS02006251           JUNCTION     0.54     1.98     9.65     0  01:59        1.15
  WS02006252           JUNCTION     0.35     1.50     9.74     0  00:00        1.05
  WS02006256           JUNCTION     1.13     2.35     9.28     0  00:00        2.35
  WSF200               JUNCTION     0.17     0.29     5.52     0  03:09        0.29
  YS02001580           JUNCTION     0.14     1.05     9.59     0  02:13        0.77
  YS02001583           JUNCTION     0.17     1.14     9.64     0  02:13        0.82
  YS02001586           JUNCTION     0.27     1.13     9.30     0  02:13        1.13
  YS02001590           JUNCTION     0.38     1.40     9.26     0  02:13        1.40
  YS02001593           JUNCTION     0.31     1.43     9.30     0  02:13        1.43
  YS02001596           JUNCTION     0.43     1.78     9.20     0  02:13        1.78
  YS02001600           JUNCTION     0.52     1.87     9.00     0  02:13        1.87
  YS02001601           JUNCTION     0.71     2.06     8.90     0  02:12        2.06
  YS02001602           JUNCTION     0.61     1.87     8.77     0  02:12        1.87
  YS02001605           JUNCTION     0.56     1.78     8.68     0  02:23        1.78
  YS02001607           JUNCTION     0.52     1.65     8.49     0  02:36        1.64
  YS02001610           JUNCTION     0.56     1.68     8.48     0  02:17        1.68
  YS02001613           JUNCTION     0.52     1.66     8.50     0  02:23        1.66
  YS02001616           JUNCTION     0.46     1.61     8.52     0  02:23        1.61
  YS02001619           JUNCTION     0.43     1.61     8.54     0  02:23        1.61
  YS02001622           JUNCTION     0.42     1.59     8.50     0  02:23        1.59
  YS02001625           JUNCTION     0.67     1.78     8.38     0  02:17        1.78
  YS02001629           JUNCTION     0.56     1.85     8.40     0  02:19        1.85
  YS02001633           JUNCTION     0.62     2.08     8.53     0  02:23        2.08
  YS02001641           JUNCTION     0.58     1.96     8.40     0  02:23        1.96
  YS02001644           JUNCTION     0.57     1.92     8.35     0  02:21        1.92
  YS02001647           JUNCTION     0.35     1.76     8.37     0  02:21        1.72
  YS02001649           JUNCTION     0.38     1.97     8.36     0  02:22        1.91
  YS02001652           JUNCTION     0.26     1.79     8.39     0  02:22        1.75
  YS02001655           JUNCTION     0.19     1.98     8.83     0  02:19        1.54
  YS02001658           JUNCTION     0.14     1.32     8.46     0  02:24        1.29
  YS02001661           JUNCTION     0.17     1.11     8.51     0  02:24        1.07
  YS02001664           JUNCTION     0.07     0.48     8.40     0  02:24        0.44
  YS02001745           JUNCTION     0.08     0.74     8.26     0  02:24        0.73
  YS02001748           JUNCTION     0.12     1.89     8.97     0  02:21        1.16
  YS02001751           JUNCTION     0.15     1.73     8.61     0  02:21        1.33
  YS02001754           JUNCTION     0.21     1.83     8.44     0  02:21        1.60
  YS02001757           JUNCTION     0.39     2.01     8.27     0  02:21        1.93
  YS02001759           JUNCTION     0.32     1.98     8.34     0  02:22        1.93
  YS02001762           JUNCTION     0.31     1.98     8.38     0  02:21        1.91
  YS02001765           JUNCTION     0.29     1.94     8.39     0  02:21        1.89
  YS02001767           JUNCTION     0.29     1.93     8.41     0  02:21        1.87
  YS02001770           JUNCTION     0.30     1.95     8.44     0  02:23        1.95
  YS02001774           JUNCTION     0.36     1.99     8.42     0  02:21        1.97
  YS02001779           JUNCTION     0.20     1.68     8.37     0  02:18        1.68
  YS02001783           JUNCTION     0.32     1.33     7.47     0  02:18        1.24
  YS02001784           JUNCTION     0.33     1.16     7.23     0  02:18        1.12
  YS02001786           JUNCTION     0.27     0.92     6.95     0  02:18        0.87
  YS02001788           JUNCTION     0.20     0.62     6.60     0  02:24        0.62
  YS02001790           JUNCTION     0.24     0.72     6.37     0  02:26        0.72
  YS02001791           JUNCTION     0.15     0.44     5.91     0  02:26        0.43
  YS02001793           JUNCTION     0.09     0.25     5.09     0  02:26        0.25
  YS02001882           JUNCTION     0.40     1.83     8.55     0  02:18        1.83
  YS02001884           JUNCTION     0.48     1.91     8.52     0  02:18        1.91
  YS02001887           JUNCTION     0.56     1.92     8.46     0  02:18        1.92
  YS02001890           JUNCTION     0.59     1.81     8.32     0  02:18        1.81
  YS02001895           JUNCTION     0.37     1.62     8.37     0  02:18        1.62
  YS02001898           JUNCTION     0.37     1.64     8.37     0  02:18        1.64
  YS02001901           JUNCTION     0.48     1.72     8.33     0  02:18        1.72
  YS02001904           JUNCTION     0.46     1.64     8.27     0  02:18        1.64
  YS02001907           JUNCTION     0.77     1.96     8.25     0  02:18        1.96
  YS02001910           JUNCTION     0.58     1.99     8.50     0  02:18        1.96
  YS02001915           JUNCTION     0.40     1.95     8.67     0  02:18        1.91
  YS02001918           JUNCTION     0.24     1.81     8.88     0  02:18        1.81
  YS02001920           JUNCTION     0.31     2.14     9.15     0  02:18        1.75
  YS02001923           JUNCTION     0.18     2.03     9.29     0  02:18        1.46
  YS02001926           JUNCTION     0.21     1.90     9.35     0  02:18        1.26
  YS02001929           JUNCTION     0.12     1.78     9.47     0  02:18        1.17
  YS02006553           JUNCTION     0.77     2.02     8.30     0  02:23        2.02
  YS02006556           JUNCTION     0.74     2.01     8.32     0  02:23        2.01
  YS02006558           JUNCTION     0.78     2.07     8.34     0  02:23        2.07
  YS02006561           JUNCTION     0.20     1.02     7.68     0  02:18        0.89
  YS02163301           JUNCTION     0.57     1.94     8.46     0  02:23        1.94
  YS02163601           JUNCTION     0.65     2.04     8.44     0  02:23        2.04
  YS02164001           JUNCTION     0.58     1.96     8.42     0  02:20        1.93
  CC-1                 OUTFALL      0.00     0.00     0.00     0  00:00        0.00
  CC-2                 OUTFALL      0.00     0.00     0.00     0  00:00        0.00
  JK-1                 OUTFALL      0.00     0.00     0.00     0  00:00        0.00
  JK-2                 OUTFALL      0.00     0.00     0.00     0  00:00        0.00
  WSC                  OUTFALL      0.18     0.30     0.97     0  03:13        0.30
  CC-storage           STORAGE      0.19     0.80     6.30     0  00:00        0.79
  JK-storage           STORAGE      0.02     2.99     3.79     0  00:00        0.68
  
  
  *******************
  Node Inflow Summary
  *******************
  
  -------------------------------------------------------------------------------------------------
                                  Maximum  Maximum                  Lateral       Total        Flow
                                  Lateral    Total  Time of Max      Inflow      Inflow     Balance
                                   Inflow   Inflow   Occurrence      Volume      Volume       Error
  Node                 Type           LPS      LPS  days hr:min    10^6 ltr    10^6 ltr     Percent
  -------------------------------------------------------------------------------------------------
  WS02003060           JUNCTION     16.53   546.78     0  03:10       0.471        5.24       0.044
  WS02003066           JUNCTION      0.00   529.15     0  03:09           0        4.77       0.032
  WS02003067           JUNCTION      0.00   528.86     0  03:09           0        4.77       0.089
  WS02003069           JUNCTION      0.32   546.46     0  03:10     0.00912        5.25       0.082
  WS02003072           JUNCTION      0.00   545.68     0  03:11           0        5.24       0.147
  WS02003073           JUNCTION      1.82   547.20     0  03:12      0.0519        5.28       0.113
  WS02004401           JUNCTION      0.00   534.60     0  03:06           0        4.87       0.218
  WS02004402           JUNCTION      0.00   533.89     0  03:05           0        4.86       0.220
  WS02004403           JUNCTION      0.00   533.60     0  03:05           0        4.85       0.216
  WS02004404           JUNCTION      0.16   546.93     0  03:07     0.00462        4.85       0.131
  WS02004405           JUNCTION      0.04   592.73     0  03:07     0.00109        4.84       0.217
  WS02004406           JUNCTION      0.00   537.54     0  03:07           0        4.83       0.444
  WS02004407           JUNCTION      0.00   533.84     0  03:08           0        4.81       0.026
  WS02004409           JUNCTION      0.00   533.44     0  03:08           0        4.81       0.061
  WS02004410           JUNCTION      0.00   531.82     0  03:08           0        4.81       0.100
  WS02004411           JUNCTION      0.00   531.01     0  03:08           0         4.8       0.123
  WS02004412           JUNCTION      0.00   529.77     0  03:09           0         4.8       0.162
  WS02004413           JUNCTION      0.00   529.68     0  03:09           0        4.79       0.299
  WS02006109           JUNCTION      1.23   547.66     0  03:04      0.0351        4.92       0.144
  WS02006110           JUNCTION      0.00   548.26     0  03:04           0        4.92       0.149
  WS02006111           JUNCTION      0.00   560.96     0  03:04           0        4.91       0.027
  WS02006112           JUNCTION      0.00   540.79     0  03:05           0        4.91       0.427
  WS02006113           JUNCTION      0.00   557.91     0  03:04           0        4.91       0.038
  WS02006115           JUNCTION      0.00   544.61     0  03:04           0        4.88       0.152
  WS02006116           JUNCTION      0.00   536.49     0  03:04           0        4.88       0.059
  WS02006228           JUNCTION      0.00   545.90     0  03:04           0        4.89       0.073
  WS02006229           JUNCTION      0.00   545.62     0  03:04           0         4.9       0.138
  WS02006230           JUNCTION     10.28   576.99     0  03:02       0.293         4.9       0.102
  WS02006231           JUNCTION      0.00   563.59     0  01:59           0        4.61      -0.073
  WS02006232           JUNCTION      0.00   561.13     0  01:59           0        4.62       0.268
  WS02006234           JUNCTION      0.00   560.93     0  01:59           0         4.6      -0.383
  WS02006235           JUNCTION      0.00   548.91     0  01:47           0        4.76       0.122
  WS02006238           JUNCTION      0.00   426.78     0  03:20           0        3.65      -0.349
  WS02006239           JUNCTION      0.00   421.41     0  03:24           0        3.51      -0.532
  WS02006240           JUNCTION      0.00   418.85     0  03:18           0        3.46      -0.271
  WS02006242           JUNCTION      0.00   421.57     0  03:21           0        3.45      -0.093
  WS02006243           JUNCTION      0.00   424.74     0  02:01           0        3.45      -0.116
  WS02006245           JUNCTION      0.00   523.31     0  01:53           0        3.48       0.890
  WS02006247           JUNCTION      0.00   484.31     0  02:00           0        3.47      -0.251
  WS02006248           JUNCTION      0.00   547.80     0  01:53           0        3.48       0.085
  WS02006249           JUNCTION      0.00   528.73     0  01:58           0        3.63       0.690
  WS02006251           JUNCTION      0.08   433.37     0  01:57     0.00219        3.63       0.070
  WS02006252           JUNCTION      0.00   400.00     0  00:00           0        3.62      -0.305
  WS02006256           JUNCTION      0.00   300.00     0  00:00           0        1.59     -13.512
  WSF200               JUNCTION      0.00   529.32     0  03:09           0        4.77       0.011
  YS02001580           JUNCTION      0.00    74.64     0  02:12           0     0.00406       1.583
  YS02001583           JUNCTION      0.00   127.86     0  02:12           0      0.0154      -3.924
  YS02001586           JUNCTION    692.44   692.44     0  02:26        1.53        1.54       0.070
  YS02001590           JUNCTION      0.00   317.84     0  02:22           0        1.26      -0.034
  YS02001593           JUNCTION      0.00   317.89     0  02:22           0        1.26       0.016
  YS02001596           JUNCTION      0.00   317.86     0  02:22           0        1.26       0.003
  YS02001600           JUNCTION      0.00   317.88     0  02:22           0        1.26       0.026
  YS02001601           JUNCTION   1215.65  1533.26     0  02:26        2.13        3.39       0.028
  YS02001602           JUNCTION      0.00   510.18     0  02:47           0        2.24       0.024
  YS02001605           JUNCTION      0.00   510.06     0  02:47           0        2.16       0.023
  YS02001607           JUNCTION      0.00   510.35     0  02:47           0        2.16       0.096
  YS02001610           JUNCTION      0.00   657.40     0  02:26           0        2.31       0.108
  YS02001613           JUNCTION      0.00   510.72     0  02:47           0        1.96       0.090
  YS02001616           JUNCTION      0.00   511.01     0  02:47           0        1.96       0.026
  YS02001619           JUNCTION   1232.66  1232.66     0  02:26        2.45        4.26       0.002
  YS02001622           JUNCTION      0.00   971.24     0  02:40           0        4.11       0.004
  YS02001625           JUNCTION      0.00  1287.67     0  02:26           0        4.24       0.213
  YS02001629           JUNCTION      0.00   971.42     0  02:40           0        3.59       0.028
  YS02001633           JUNCTION    914.59  1361.27     0  02:17        1.56           5       0.072
  YS02001641           JUNCTION      0.00  1359.22     0  02:17           0        4.86       0.061
  YS02001644           JUNCTION    818.69  1746.06     0  02:17        1.35         6.2       0.056
  YS02001647           JUNCTION      0.00  1745.97     0  02:17           0           6       0.007
  YS02001649           JUNCTION      0.00  2003.42     0  02:18           0        7.23       0.005
  YS02001652           JUNCTION      0.00   835.38     0  02:25           0        1.23      -0.062
  YS02001655           JUNCTION      0.15   835.52     0  02:25     0.00439        1.23       0.026
  YS02001658           JUNCTION      0.00   835.04     0  02:25           0        1.22      -0.008
  YS02001661           JUNCTION      0.00   875.97     0  02:24           0        1.22       0.012
  YS02001664           JUNCTION    807.41   807.41     0  02:25        1.22        1.22      -0.004
  YS02001745           JUNCTION    508.98   508.98     0  02:25       0.745       0.745       0.093
  YS02001748           JUNCTION      0.04   551.50     0  02:21     0.00128       0.746      -0.124
  YS02001751           JUNCTION      0.01   519.18     0  02:24    0.000313        0.75       0.043
  YS02001754           JUNCTION      0.26   519.55     0  02:24     0.00741        0.76      -0.075
  YS02001757           JUNCTION      0.00  3397.73     0  02:25           0        10.5       0.019
  YS02001759           JUNCTION    707.85  1374.96     0  02:24        1.03        2.54      -0.002
  YS02001762           JUNCTION      0.00   804.93     0  02:28           0        1.51       0.012
  YS02001765           JUNCTION      0.00   804.00     0  02:28           0        1.51       0.010
  YS02001767           JUNCTION      0.54   803.62     0  02:28      0.0152        1.51       0.010
  YS02001770           JUNCTION    997.87   997.87     0  02:25        1.57        1.61      -0.009
  YS02001774           JUNCTION      0.00   338.72     0  02:25           0       0.133       0.940
  YS02001779           JUNCTION      0.01   339.00     0  02:25    0.000142      0.0923      -0.357
  YS02001783           JUNCTION      0.00  1162.97     0  02:23           0        3.88       0.008
  YS02001784           JUNCTION      1.06  1164.19     0  02:23      0.0302        3.91       0.014
  YS02001786           JUNCTION      0.06  1164.75     0  02:23      0.0016        3.91       0.018
  YS02001788           JUNCTION      0.07  1164.79     0  02:23     0.00202        3.91       0.007
  YS02001790           JUNCTION      0.15  1175.90     0  02:23     0.00442        3.91       0.002
  YS02001791           JUNCTION      0.00  1289.70     0  02:25           0        3.91       0.002
  YS02001793           JUNCTION      0.00  1235.84     0  02:27           0        3.91      -0.001
  YS02001882           JUNCTION      0.00    40.22     0  02:15           0      0.0123       5.116
  YS02001884           JUNCTION      0.00    48.37     0  02:14           0      0.0477       5.636
  YS02001887           JUNCTION    758.37   758.40     0  02:25        1.08        1.11       0.404
  YS02001890           JUNCTION      0.00   758.47     0  02:25           0        1.07       0.481
  YS02001895           JUNCTION      0.00   517.62     0  02:26           0        1.01       0.156
  YS02001898           JUNCTION      0.00   517.74     0  02:27           0           1       0.035
  YS02001901           JUNCTION      0.00   517.79     0  02:28           0        1.01       0.329
  YS02001904           JUNCTION      0.00   517.61     0  02:28           0        1.01       0.288
  YS02001907           JUNCTION      0.00  1851.38     0  02:25           0        3.37       0.540
  YS02001910           JUNCTION      0.00  1334.99     0  02:25           0        2.36       0.306
  YS02001915           JUNCTION    882.84  1335.35     0  02:25        1.49        2.39       0.069
  YS02001918           JUNCTION      0.00   453.72     0  02:25           0       0.916       0.028
  YS02001920           JUNCTION      2.87   453.43     0  02:25      0.0818       0.903       0.114
  YS02001923           JUNCTION      0.04   449.46     0  02:25     0.00107       0.809      -0.029
  YS02001926           JUNCTION      0.05   448.96     0  02:25     0.00149       0.794       0.008
  YS02001929           JUNCTION    432.35   432.35     0  02:26       0.786       0.787      -0.061
  YS02006553           JUNCTION      0.00   800.07     0  02:38           0        2.35       0.510
  YS02006556           JUNCTION      0.00   800.13     0  02:38           0        2.35       0.354
  YS02006558           JUNCTION   1024.74  1162.75     0  02:23        1.58        3.91       0.085
  YS02006561           JUNCTION      0.00  1162.37     0  02:24           0        3.88       0.003
  YS02163301           JUNCTION      0.00   971.96     0  02:40           0        3.58       0.047
  YS02163601           JUNCTION      0.11  1360.77     0  02:17     0.00313        4.86       0.106
  YS02164001           JUNCTION      0.00  1360.82     0  02:17           0        4.86       0.053
  CC-1                 OUTFALL       0.00   683.00     0  00:00           0        4.56       0.000
  CC-2                 OUTFALL       0.00   683.00     0  00:00           0        4.56       0.000
  JK-1                 OUTFALL       0.00  1000.00     0  00:00           0        1.42       0.000
  JK-2                 OUTFALL       0.00  1000.00     0  00:00           0        1.42       0.000
  WSC                  OUTFALL       0.00   546.87     0  03:13           0        5.28       0.000
  CC-storage           STORAGE       0.00  3397.34     0  02:25           0        12.7      -0.347
  JK-storage           STORAGE       0.00  1281.79     0  02:27           0        4.06      -7.854
  
  
  **********************
  Node Surcharge Summary
  **********************
  
  Surcharging occurs when water rises above the top of the highest conduit.
  ---------------------------------------------------------------------
                                               Max. Height   Min. Depth
                                   Hours       Above Crown    Below Rim
  Node                 Type      Surcharged         Meters       Meters
  ---------------------------------------------------------------------
  WS02006109           JUNCTION        1.89          0.218        1.602
  WS02006110           JUNCTION        0.06          0.069        1.781
  WS02006112           JUNCTION        1.20          0.077        1.603
  WS02006228           JUNCTION        1.87          0.250        1.950
  WS02006229           JUNCTION        1.90          0.292        2.158
  WS02006230           JUNCTION        0.06          0.122        1.448
  WS02006231           JUNCTION        0.97          0.859        0.671
  WS02006232           JUNCTION        1.98          0.954        0.526
  WS02006234           JUNCTION        1.56          1.240        0.000
  WS02006235           JUNCTION        1.81          1.290        0.000
  WS02006238           JUNCTION        1.93          1.430        0.000
  WS02006239           JUNCTION        1.84          1.264        0.026
  WS02006240           JUNCTION        1.79          1.355        0.035
  WS02006242           JUNCTION        1.94          0.820        0.000
  WS02006243           JUNCTION        1.74          0.770        0.000
  WS02006245           JUNCTION        1.71          0.850        0.000
  WS02006247           JUNCTION        1.77          0.760        0.000
  WS02006248           JUNCTION        1.69          0.380        0.000
  WS02006249           JUNCTION        1.74          0.390        0.000
  WS02006251           JUNCTION        1.30          0.953        0.227
  WS02006252           JUNCTION        2.51          1.100        0.000
  WS02006256           JUNCTION        6.83          2.050        0.000
  YS02001580           JUNCTION        0.56          0.450        0.000
  YS02001583           JUNCTION        0.56          0.500        0.000
  YS02001586           JUNCTION        0.65          0.510        0.000
  YS02001590           JUNCTION        0.73          0.750        0.000
  YS02001593           JUNCTION        0.73          0.813        0.027
  YS02001596           JUNCTION        0.85          1.050        0.020
  YS02001600           JUNCTION        1.01          1.190        0.000
  YS02001601           JUNCTION        1.36          1.440        0.000
  YS02001602           JUNCTION        1.24          1.270        0.000
  YS02001605           JUNCTION        1.18          1.180        0.000
  YS02001607           JUNCTION        0.66          0.646        0.034
  YS02001610           JUNCTION        0.69          0.680        0.000
  YS02001613           JUNCTION        0.65          0.662        0.038
  YS02001616           JUNCTION        0.61          0.610        0.000
  YS02001619           JUNCTION        0.60          0.610        0.000
  YS02001622           JUNCTION        0.59          0.594        0.026
  YS02001625           JUNCTION        0.79          0.780        0.000
  YS02001629           JUNCTION        0.49          0.470        0.000
  YS02001633           JUNCTION        0.80          1.060        0.000
  YS02001641           JUNCTION        0.67          0.963        0.137
  YS02001644           JUNCTION        0.60          0.920        0.000
  YS02001647           JUNCTION        0.35          0.763        0.137
  YS02001649           JUNCTION        0.38          0.966        0.084
  YS02001652           JUNCTION        0.28          0.760        0.370
  YS02001655           JUNCTION        0.22          0.979        0.221
  YS02001658           JUNCTION        0.15          0.321        0.979
  YS02001661           JUNCTION        0.01          0.037        1.353
  YS02001748           JUNCTION        0.08          0.813        0.377
  YS02001751           JUNCTION        0.16          0.728        0.472
  YS02001754           JUNCTION        0.21          0.785        0.365
  YS02001757           JUNCTION        0.37          1.012        0.198
  YS02001759           JUNCTION        0.32          0.979        0.231
  YS02001762           JUNCTION        0.30          0.983        0.167
  YS02001765           JUNCTION        0.29          0.941        0.159
  YS02001767           JUNCTION        0.28          0.925        0.105
  YS02001770           JUNCTION        0.27          0.920        0.000
  YS02001774           JUNCTION        0.31          0.995        0.055
  YS02001779           JUNCTION        0.23          0.680        0.000
  YS02001783           JUNCTION        0.50          0.525        1.075
  YS02001784           JUNCTION        0.47          0.360        1.130
  YS02001786           JUNCTION        0.36          0.116        1.314
  YS02001882           JUNCTION        0.44          0.830        0.000
  YS02001884           JUNCTION        0.45          0.847        0.023
  YS02001887           JUNCTION        0.49          0.870        0.080
  YS02001890           JUNCTION        0.50          0.760        0.000
  YS02001895           JUNCTION        0.43          0.620        0.130
  YS02001898           JUNCTION        0.42          0.608        0.132
  YS02001901           JUNCTION        0.47          0.718        0.152
  YS02001904           JUNCTION        0.46          0.642        0.208
  YS02001907           JUNCTION        0.75          0.950        0.000
  YS02001910           JUNCTION        0.53          0.994        0.106
  YS02001915           JUNCTION        0.44          0.951        0.049
  YS02001918           JUNCTION        0.36          0.810        0.000
  YS02001920           JUNCTION        0.37          1.140        0.000
  YS02001923           JUNCTION        0.06          0.820        0.000
  YS02001926           JUNCTION        0.11          0.900        0.000
  YS02001929           JUNCTION        0.01          0.780        0.000
  YS02006553           JUNCTION        0.76          1.019        0.171
  YS02006556           JUNCTION        0.63          0.972        0.378
  YS02006558           JUNCTION        0.61          0.974        0.426
  YS02006561           JUNCTION        0.32          0.220        0.930
  YS02163301           JUNCTION        0.77          0.940        0.090
  YS02163601           JUNCTION        0.83          1.045        0.035
  YS02164001           JUNCTION        0.69          0.957        0.143
  
  
  *********************
  Node Flooding Summary
  *********************
  
  Flooding refers to all water that overflows a node, whether it ponds or not.
  --------------------------------------------------------------------------
                                                             Total   Maximum
                                 Maximum   Time of Max       Flood    Ponded
                        Hours       Rate    Occurrence      Volume     Depth
  Node                 Flooded       LPS   days hr:min    10^6 ltr    Meters
  --------------------------------------------------------------------------
  WS02006234              0.01     47.94      0  03:02       0.000     0.000
  WS02006235              0.01     22.74      0  01:54       0.000     0.000
  WS02006238              0.01     16.14      0  01:54       0.000     0.000
  WS02006242              0.01     95.09      0  01:58       0.001     0.000
  WS02006243              0.01    141.75      0  01:53       0.000     0.000
  WS02006245              0.01      2.24      0  02:13       0.000     0.000
  WS02006247              0.01    165.14      0  01:56       0.000     0.000
  WS02006248              0.36    238.23      0  01:58       0.011     0.000
  WS02006249              1.17    179.74      0  02:03       0.114     0.000
  WS02006252              0.01    245.63      0  00:00       0.001     0.000
  WS02006256              1.44    299.59      0  03:18       0.688     0.000
  YS02001580              0.01     35.20      0  02:13       0.000     0.000
  YS02001583              0.01     61.41      0  02:13       0.000     0.000
  YS02001586              0.43    374.71      0  02:26       0.272     0.000
  YS02001590              0.01      0.24      0  02:13       0.000     0.000
  YS02001600              0.01      0.45      0  02:13       0.000     0.000
  YS02001601              0.58   1135.46      0  02:26       1.146     0.000
  YS02001602              0.39     61.96      0  02:29       0.081     0.000
  YS02001610              0.35    657.34      0  02:26       0.494     0.000
  YS02001616              0.01      0.37      0  02:23       0.000     0.000
  YS02001619              0.01      0.70      0  02:23       0.000     0.000
  YS02001625              0.30   1287.54      0  02:26       0.781     0.000
  YS02001629              0.09     81.76      0  02:22       0.015     0.000
  YS02001633              0.01      0.03      0  02:23       0.000     0.000
  YS02001644              0.13    679.44      0  02:25       0.190     0.000
  YS02001779              0.11    338.87      0  02:25       0.076     0.000
  YS02001882              0.01      2.83      0  02:18       0.000     0.000
  YS02001890              0.15    243.04      0  02:25       0.060     0.000
  YS02001907              0.31   1705.86      0  02:25       1.010     0.000
  YS02001918              0.01    109.92      0  02:18       0.001     0.000
  YS02001920              0.01     12.86      0  02:18       0.000     0.000
  YS02001923              0.01    104.34      0  02:18       0.000     0.000
  YS02001926              0.01     41.40      0  02:18       0.000     0.000
  YS02001929              0.01    242.52      0  02:18       0.000     0.000
  
  
  **********************
  Storage Volume Summary
  **********************
  
  ------------------------------------------------------------------------------------------------
                         Average    Avg   Evap  Exfil     Maximum    Max    Time of Max    Maximum
                          Volume   Pcnt   Pcnt   Pcnt      Volume   Pcnt     Occurrence    Outflow
  Storage Unit           1000 m³   Full   Loss   Loss     1000 m³   Full    days hr:min        LPS
  ------------------------------------------------------------------------------------------------
  CC-storage               0.521    8.1    0.0    0.0       2.229   34.8       0  00:00    1783.53
  JK-storage               0.001    0.4    0.0    0.0       0.150   51.6       0  00:00    2300.00
  
  
  ***********************
  Outfall Loading Summary
  ***********************
  
  -----------------------------------------------------------
                         Flow       Avg       Max       Total
                         Freq      Flow      Flow      Volume
  Outfall Node           Pcnt       LPS       LPS    10^6 ltr
  -----------------------------------------------------------
  CC-1                  42.68    683.00    683.00       4.562
  CC-2                  42.68    683.00    683.00       4.562
  JK-1                  10.76    998.30   1000.00       1.425
  JK-2                  10.76    998.30   1000.00       1.425
  WSC                   99.95    268.35    546.87       5.279
  -----------------------------------------------------------
  System                41.36   3630.96   3898.01      17.253
  
  
  ********************
  Link Flow Summary
  ********************
  
  -----------------------------------------------------------------------------
                                 Maximum  Time of Max   Maximum    Max/    Max/
                                  |Flow|   Occurrence   |Veloc|    Full    Full
  Link                 Type          LPS  days hr:min     m/sec    Flow   Depth
  -----------------------------------------------------------------------------
  1                    CONDUIT    546.87     0  03:13      2.81    0.19    0.30
  WS02003060WS02003069 CONDUIT    546.14     0  03:10      1.64    0.21    0.34
  WS02003066WSF200     CONDUIT    529.32     0  03:09      2.84    0.09    0.22
  WS02003067WS02003066 CONDUIT    529.15     0  03:09      1.20    0.17    0.41
  WS02003069WS02003072 CONDUIT    545.68     0  03:11      1.36    0.26    0.38
  WS02003072WS02003073 CONDUIT    545.38     0  03:12      1.43    1.18    0.37
  WS02004401WS02004402 CONDUIT    533.89     0  03:05      1.22    0.64    0.88
  WS02004402WS02004403 CONDUIT    533.60     0  03:05      1.24    0.77    0.90
  WS02004403WS02004404 CONDUIT    546.77     0  03:07      1.24    0.40    0.95
  WS02004404WS02004405 CONDUIT    592.69     0  03:07      1.45    5.81    0.97
  WS02004405WS02004406 CONDUIT    537.54     0  03:07      1.46    1.06    0.96
  WS02004406WS02004407 CONDUIT    533.84     0  03:08      1.04    0.24    0.62
  WS02004407WS02004409 CONDUIT    533.44     0  03:08      1.59    0.19    0.48
  WS02004409WS02004410 CONDUIT    531.82     0  03:08      1.06    0.69    0.67
  WS02004410WS02004411 CONDUIT    531.01     0  03:08      1.12    0.73    0.68
  WS02004411WS02004412 CONDUIT    529.77     0  03:09      1.22    0.75    0.69
  WS02004412WS02004413 CONDUIT    529.68     0  03:09      1.22    0.35    0.77
  WS02004413WS02003067 CONDUIT    528.86     0  03:09      1.10    0.23    0.59
  WS02006109WS02006110 CONDUIT    548.26     0  03:04      1.09    1.05    1.00
  WS02006110WS02006113 CONDUIT    557.91     0  03:04      1.32    0.51    0.79
  WS02006111WS02006112 CONDUIT    540.79     0  03:05      1.95    0.26    0.67
  WS02006112WS02006115 CONDUIT    544.61     0  03:04      0.82    0.32    0.88
  WS02006113WS02006111 CONDUIT    560.96     0  03:04      2.47    0.67    0.46
  WS02006115WS02006116 CONDUIT    536.49     0  03:04      1.29    0.69    0.78
  WS02006116WS02004401 CONDUIT    534.60     0  03:06      1.21    0.74    0.86
  WS02006228WS02006109 CONDUIT    546.43     0  03:04      1.09    2.39    1.00
  WS02006229WS02006228 CONDUIT    545.90     0  03:04      1.12    1.81    1.00
  WS02006230WS02006229 CONDUIT    545.62     0  03:04      1.42   12.14    1.00
  WS02006231WS02006230 CONDUIT    566.71     0  03:02      1.50    8.60    1.00
  WS02006232WS02006231 CONDUIT    563.59     0  01:59      1.47    1.18    1.00
  WS02006234WS02006232 CONDUIT    561.13     0  01:59      1.46    1.14    1.00
  WS02006235WS02006234 CONDUIT    560.93     0  01:59      1.46    5.92    1.00
  WS02006238WS02006235 CONDUIT    443.33     0  03:15      1.45    0.99    1.00
  WS02006239WS02006238 CONDUIT    426.78     0  03:20      1.11    1.37    1.00
  WS02006240WS02006239 CONDUIT    421.41     0  03:24      1.24    1.33    1.00
  WS02006242WS02006240 CONDUIT    418.85     0  03:18      1.16    1.66    1.00
  WS02006243WS02006242 CONDUIT    421.57     0  03:21      1.41    0.90    1.00
  WS02006245WS02006243 CONDUIT    424.74     0  02:01      1.44    1.26    1.00
  WS02006247WS02006245 CONDUIT    523.31     0  01:53      1.43    4.15    1.00
  WS02006248WS02006247 CONDUIT    484.31     0  02:00      1.48    1.05    1.00
  WS02006249WS02006248 CONDUIT    547.80     0  01:53      1.45    3.00    1.00
  WS02006251WS02006249 CONDUIT    528.73     0  01:58      1.99    1.52    1.00
  WS02006252WS02006251 CONDUIT    421.40     0  01:59     27.00    1.55    1.00
  WS02006256WS02006235 CONDUIT    288.91     0  00:00      4.23    3.06    1.00
  WSF200WS02003060     CONDUIT    530.26     0  03:10      2.06    0.12    0.28
  YS02001580YS02001583 CONDUIT     74.64     0  02:12      0.54    0.29    1.00
  YS02001583YS02001586 CONDUIT    127.86     0  02:12      0.53    0.19    1.00
  YS02001586YS02001590 CONDUIT    317.84     0  02:22      1.26    0.56    1.00
  YS02001590YS02001593 CONDUIT    317.89     0  02:22      1.12    2.00    1.00
  YS02001593YS02001596 CONDUIT    317.86     0  02:22      1.77    0.50    1.00
  YS02001596YS02001600 CONDUIT    317.88     0  02:22      1.26    0.62    1.00
  YS02001600YS02001601 CONDUIT    317.90     0  02:22      1.12    0.55    1.00
  YS02001601YS02001602 CONDUIT    510.18     0  02:47      1.80    1.84    1.00
  YS02001602YS02001605 CONDUIT    510.06     0  02:47      1.80   10.79    1.00
  YS02001605YS02001607 CONDUIT    510.35     0  02:47      1.80    2.80    1.00
  YS02001607YS02001610 CONDUIT    510.75     0  02:47      0.65    0.49    1.00
  YS02001610YS02001613 CONDUIT    510.72     0  02:47      0.65    0.59    1.00
  YS02001613YS02001616 CONDUIT    511.01     0  02:47      0.65    0.44    1.00
  YS02001616YS02001619 CONDUIT    511.10     0  02:47      0.68    0.89    1.00
  YS02001619YS02001622 CONDUIT    971.24     0  02:40      1.24    1.43    1.00
  YS02001622YS02001625 CONDUIT    971.24     0  02:40      1.24    0.52    1.00
  YS02001625YS02001629 CONDUIT    971.42     0  02:40      1.24    0.46    1.00
  YS02001629YS02163301 CONDUIT    971.96     0  02:40      1.24    1.20    1.00
  YS02001633YS02163601 CONDUIT   1360.66     0  02:17      1.73    1.43    1.00
  YS02001641YS02001644 CONDUIT   1359.23     0  02:17      1.73    4.39    1.00
  YS02001644YS02001647 CONDUIT   1745.97     0  02:17      2.23    1.03    1.00
  YS02001647YS02001649 CONDUIT   1759.85     0  02:17      2.29    0.93    1.00
  YS02001649YS02001757 CONDUIT   2004.00     0  02:18      2.55    1.22    1.00
  YS02001652YS02001649 CONDUIT    835.47     0  02:25      1.06    0.41    1.00
  YS02001655YS02001652 CONDUIT    835.38     0  02:25      1.22    0.41    1.00
  YS02001658YS02001655 CONDUIT    835.37     0  02:25      1.81    0.35    1.00
  YS02001661YS02001658 CONDUIT    835.04     0  02:25      2.26    0.33    1.00
  YS02001664YS02001661 CONDUIT    875.97     0  02:24      2.24    0.27    0.74
  YS02001745YS02001748 CONDUIT    551.45     0  02:21      2.11    0.21    0.87
  YS02001748YS02001751 CONDUIT    519.17     0  02:24      1.63    0.26    1.00
  YS02001751YS02001754 CONDUIT    519.29     0  02:24      1.31    0.25    1.00
  YS02001754YS02001757 CONDUIT    519.08     0  02:24      0.66    0.21    1.00
  YS02001757CaochengTiaoxuchi CONDUIT   3397.34     0  02:25      6.86    1.47    0.85
  YS02001759YS02001757 CONDUIT   1375.04     0  02:24      1.75    0.98    1.00
  YS02001762YS02001759 CONDUIT    805.03     0  02:28      1.02    0.93    1.00
  YS02001765YS02001762 CONDUIT    804.93     0  02:28      1.02    0.75    1.00
  YS02001767YS02001765 CONDUIT    804.00     0  02:28      1.02    1.01    1.00
  YS02001770YS02001767 CONDUIT    803.09     0  02:28      1.02    3.18    1.00
  YS02001774YS02001770 CONDUIT    338.72     0  02:25      0.43    0.22    1.00
  YS02001779YS02001774 CONDUIT    339.00     0  02:25      0.43    0.17    1.00
  YS02001783YS02001784 CONDUIT   1163.13     0  02:23      2.31    1.60    1.00
  YS02001784YS02001785 CONDUIT   1164.69     0  02:23      2.32    2.71    1.00
  YS02001786YS02001788 CONDUIT   1164.72     0  02:23      2.48    2.24    0.89
  YS02001788YS02001790 CONDUIT   1175.75     0  02:23      2.74    0.87    0.84
  YS02001790YS02001791 CONDUIT   1289.70     0  02:25      3.43    1.40    0.70
  YS02001791YS02001793 CONDUIT   1235.84     0  02:27      6.36    0.53    0.43
  YS02001793JiankangQianchi CONDUIT   1281.79     0  02:27     24.45    0.10    0.50
  YS02001882YS02001884 CONDUIT     40.22     0  02:15      0.11    0.05    1.00
  YS02001884YS02001887 CONDUIT     48.37     0  02:14      0.08    0.06    1.00
  YS02001887YS02001890 CONDUIT    758.47     0  02:25      0.97    1.30    1.00
  YS02001890YS02001895 CONDUIT    517.62     0  02:26      0.66    0.24    1.00
  YS02001895YS02001898 CONDUIT    517.74     0  02:27      0.66    0.90    1.00
  YS02001898YS02001901 CONDUIT    517.79     0  02:28      0.66    0.33    1.00
  YS02001901YS02001904 CONDUIT    517.61     0  02:28      0.66    0.80    1.00
  YS02001904YS02001907 CONDUIT    517.59     0  02:27      0.66    0.18    1.00
  YS02001907YS02006553 CONDUIT    800.07     0  02:38      0.89    0.94    1.00
  YS02001910YS02001907 CONDUIT   1335.49     0  02:25      1.70    0.75    1.00
  YS02001915YS02001910 CONDUIT   1334.99     0  02:25      1.70    0.66    1.00
  YS02001918YS02001915 CONDUIT    453.69     0  02:25      0.58    0.25    1.00
  YS02001920YS02001918 CONDUIT    453.72     0  02:25      0.67    0.44    1.00
  YS02001923YS02001920 CONDUIT    450.56     0  02:25      0.69    0.20    1.00
  YS02001926YS02001923 CONDUIT    449.42     0  02:25      0.94    0.64    1.00
  YS02001929YS02001926 CONDUIT    448.91     0  02:25      1.08    0.21    1.00
  YS02006553YS02006556 CONDUIT    800.13     0  02:38      1.02    0.68    1.00
  YS02006556YS02006558 CONDUIT    801.00     0  02:38      1.02    0.63    1.00
  YS02006558YS02006561 CONDUIT   1162.37     0  02:24      4.11    2.57    1.00
  YS02006561YS02001783 CONDUIT   1162.97     0  02:23      2.31    0.60    1.00
  YS02163301YS02001633 CONDUIT    972.24     0  02:40      1.24    0.91    1.00
  YS02163601YS02164001 CONDUIT   1360.82     0  02:17      1.73    1.21    1.00
  YS02164001YS02001641 CONDUIT   1359.22     0  02:17      1.73    1.86    1.00
  CC-R1                PUMP       683.00     0  00:00              1.00
  CC-R2                PUMP       683.00     0  00:00              1.00
  CC-S1                PUMP       200.00     0  00:00              1.00
  CC-S2                PUMP       200.00     0  00:00              1.00
  JK-R1                PUMP      1000.00     0  00:00              1.00
  JK-R2                PUMP      1000.00     0  00:00              1.00
  JK-S                 PUMP       300.00     0  00:00              1.00
  
  
  ***************************
  Flow Classification Summary
  ***************************
  
  -------------------------------------------------------------------------------------
                      Adjusted    ---------- Fraction of Time in Flow Class ---------- 
                       /Actual         Up    Down  Sub   Sup   Up    Down  Norm  Inlet 
  Conduit               Length    Dry  Dry   Dry   Crit  Crit  Crit  Crit  Ltd   Ctrl  
  -------------------------------------------------------------------------------------
  1                       1.00   0.00  0.00  0.00  0.00  1.00  0.00  0.00  0.31  0.00
  WS02003060WS02003069    1.00   0.00  0.00  0.00  0.98  0.02  0.00  0.00  0.73  0.00
  WS02003066WSF200        1.00   0.05  0.00  0.00  0.00  0.95  0.00  0.00  0.87  0.00
  WS02003067WS02003066    1.00   0.05  0.00  0.00  0.95  0.00  0.00  0.00  0.00  0.00
  WS02003069WS02003072    1.00   0.00  0.00  0.00  0.99  0.01  0.00  0.00  0.75  0.00
  WS02003072WS02003073    1.00   0.00  0.00  0.00  0.00  0.00  0.00  1.00  0.00  0.00
  WS02004401WS02004402    1.00   0.02  0.00  0.00  0.98  0.00  0.00  0.00  0.00  0.00
  WS02004402WS02004403    1.00   0.02  0.00  0.00  0.98  0.00  0.00  0.00  0.00  0.00
  WS02004403WS02004404    1.00   0.00  0.03  0.00  0.97  0.00  0.00  0.00  0.00  0.00
  WS02004404WS02004405    1.00   0.00  0.00  0.00  1.00  0.00  0.00  0.00  0.01  0.00
  WS02004405WS02004406    1.00   0.00  0.00  0.00  1.00  0.00  0.00  0.00  0.00  0.00
  WS02004406WS02004407    1.00   0.00  0.03  0.00  0.97  0.00  0.00  0.00  0.00  0.00
  WS02004407WS02004409    1.00   0.03  0.00  0.00  0.95  0.01  0.00  0.00  0.95  0.00
  WS02004409WS02004410    1.00   0.03  0.00  0.00  0.96  0.00  0.00  0.00  0.00  0.00
  WS02004410WS02004411    1.00   0.04  0.00  0.00  0.96  0.00  0.00  0.00  0.00  0.00
  WS02004411WS02004412    1.00   0.04  0.00  0.00  0.96  0.00  0.00  0.00  0.00  0.00
  WS02004412WS02004413    1.00   0.04  0.00  0.00  0.96  0.00  0.00  0.00  0.00  0.00
  WS02004413WS02003067    1.00   0.04  0.01  0.00  0.00  0.00  0.95  0.00  0.00  0.00
  WS02006109WS02006110    1.00   0.00  0.01  0.00  0.98  0.00  0.01  0.00  0.00  0.00
  WS02006110WS02006113    1.00   0.01  0.01  0.00  0.98  0.00  0.00  0.00  0.00  0.00
  WS02006111WS02006112    1.00   0.02  0.00  0.00  0.98  0.00  0.00  0.00  0.98  0.00
  WS02006112WS02006115    1.00   0.02  0.00  0.00  0.97  0.00  0.00  0.00  0.00  0.00
  WS02006113WS02006111    1.00   0.02  0.00  0.00  0.00  0.98  0.00  0.00  0.14  0.00
  WS02006115WS02006116    1.00   0.02  0.00  0.00  0.97  0.00  0.00  0.01  0.00  0.00
  WS02006116WS02004401    1.00   0.02  0.00  0.00  0.98  0.00  0.00  0.00  0.00  0.00
  WS02006228WS02006109    1.00   0.00  0.00  0.00  1.00  0.00  0.00  0.00  0.01  0.00
  WS02006229WS02006228    1.00   0.00  0.00  0.00  0.99  0.00  0.00  0.01  0.00  0.00
  WS02006230WS02006229    1.00   0.00  0.00  0.00  0.99  0.00  0.00  0.01  0.03  0.00
  WS02006231WS02006230    1.00   0.00  0.00  0.00  0.26  0.00  0.73  0.00  0.00  0.00
  WS02006232WS02006231    1.00   0.00  0.00  0.00  0.99  0.00  0.01  0.00  0.00  0.00
  WS02006234WS02006232    1.00   0.00  0.00  0.00  1.00  0.00  0.00  0.00  0.02  0.00
  WS02006235WS02006234    1.00   0.00  0.00  0.00  0.94  0.00  0.06  0.00  0.00  0.00
  WS02006238WS02006235    1.00   0.00  0.00  0.00  1.00  0.00  0.00  0.00  0.01  0.00
  WS02006239WS02006238    1.00   0.00  0.00  0.00  1.00  0.00  0.00  0.00  0.08  0.00
  WS02006240WS02006239    1.00   0.00  0.00  0.00  0.91  0.00  0.00  0.09  0.22  0.00
  WS02006242WS02006240    1.00   0.00  0.00  0.00  0.95  0.00  0.05  0.00  0.00  0.00
  WS02006243WS02006242    1.00   0.00  0.00  0.00  0.98  0.00  0.00  0.02  0.57  0.00
  WS02006245WS02006243    1.00   0.00  0.00  0.00  0.71  0.00  0.00  0.29  0.02  0.00
  WS02006247WS02006245    1.00   0.00  0.00  0.00  0.97  0.00  0.00  0.02  0.00  0.00
  WS02006248WS02006247    1.00   0.00  0.00  0.00  0.98  0.00  0.00  0.02  0.33  0.00
  WS02006249WS02006248    1.00   0.00  0.00  0.00  0.45  0.00  0.55  0.00  0.00  0.00
  WS02006251WS02006249    1.00   0.00  0.00  0.00  0.99  0.01  0.00  0.00  0.57  0.00
  WS02006252WS02006251    1.00   0.01  0.42  0.00  0.17  0.00  0.41  0.00  0.00  0.00
  WS02006256WS02006235    1.00   0.00  0.00  0.00  0.96  0.04  0.00  0.00  0.01  0.00
  WSF200WS02003060        1.00   0.00  0.05  0.00  0.26  0.69  0.00  0.00  0.65  0.00
  YS02001580YS02001583    1.00   0.27  0.54  0.00  0.18  0.00  0.00  0.00  0.63  0.00
  YS02001583YS02001586    1.00   0.40  0.36  0.00  0.24  0.00  0.00  0.00  0.64  0.00
  YS02001586YS02001590    1.00   0.13  0.00  0.00  0.45  0.04  0.00  0.38  0.39  0.00
  YS02001590YS02001593    1.00   0.13  0.01  0.00  0.11  0.00  0.76  0.00  0.00  0.00
  YS02001593YS02001596    1.00   0.14  0.00  0.00  0.13  0.01  0.00  0.73  0.02  0.00
  YS02001596YS02001600    1.00   0.14  0.00  0.00  0.20  0.02  0.00  0.65  0.05  0.00
  YS02001600YS02001601    1.00   0.13  0.01  0.00  0.86  0.00  0.00  0.00  0.60  0.00
  YS02001601YS02001602    1.00   0.13  0.01  0.00  0.86  0.00  0.00  0.00  0.00  0.00
  YS02001602YS02001605    1.00   0.14  0.00  0.00  0.86  0.00  0.00  0.00  0.00  0.00
  YS02001605YS02001607    1.00   0.14  0.00  0.00  0.86  0.00  0.00  0.00  0.00  0.00
  YS02001607YS02001610    1.00   0.13  0.01  0.00  0.86  0.00  0.00  0.00  0.02  0.00
  YS02001610YS02001613    1.00   0.13  0.00  0.00  0.87  0.00  0.00  0.00  0.00  0.00
  YS02001613YS02001616    1.00   0.13  0.00  0.00  0.87  0.00  0.00  0.00  0.00  0.00
  YS02001616YS02001619    1.00   0.13  0.00  0.00  0.87  0.00  0.00  0.00  0.00  0.00
  YS02001619YS02001622    1.00   0.13  0.00  0.00  0.87  0.00  0.00  0.00  0.27  0.00
  YS02001622YS02001625    1.00   0.13  0.00  0.00  0.87  0.00  0.00  0.00  0.05  0.00
  YS02001625YS02001629    1.00   0.13  0.05  0.00  0.15  0.00  0.67  0.00  0.00  0.00
  YS02001629YS02163301    1.00   0.16  0.01  0.00  0.83  0.00  0.00  0.00  0.00  0.00
  YS02001633YS02163601    1.00   0.00  0.01  0.00  0.99  0.00  0.00  0.00  0.15  0.00
  YS02001641YS02001644    1.00   0.00  0.01  0.00  0.99  0.00  0.00  0.00  0.00  0.00
  YS02001644YS02001647    1.00   0.00  0.18  0.00  0.82  0.00  0.00  0.00  0.00  0.00
  YS02001647YS02001649    1.00   0.00  0.18  0.00  0.51  0.32  0.00  0.00  0.55  0.00
  YS02001649YS02001757    1.00   0.00  0.00  0.00  0.84  0.16  0.00  0.00  0.72  0.00
  YS02001652YS02001649    1.00   0.00  0.00  0.00  0.96  0.04  0.00  0.00  0.74  0.00
  YS02001655YS02001652    1.00   0.00  0.00  0.00  0.17  0.02  0.00  0.81  0.09  0.00
  YS02001658YS02001655    1.00   0.00  0.14  0.00  0.59  0.27  0.00  0.00  0.75  0.00
  YS02001661YS02001658    1.00   0.14  0.00  0.00  0.43  0.42  0.00  0.00  0.73  0.00
  YS02001664YS02001661    1.00   0.13  0.00  0.00  0.74  0.13  0.00  0.00  0.85  0.00
  YS02001745YS02001748    1.00   0.00  0.00  0.00  0.03  0.01  0.00  0.96  0.01  0.00
  YS02001748YS02001751    1.00   0.00  0.00  0.00  0.75  0.25  0.00  0.00  0.79  0.00
  YS02001751YS02001754    1.00   0.00  0.00  0.00  0.11  0.01  0.00  0.87  0.05  0.00
  YS02001754YS02001757    1.00   0.00  0.00  0.00  1.00  0.00  0.00  0.00  0.85  0.00
  YS02001757CaochengTiaoxuchi    1.00   0.00  0.00  0.00  0.04  0.96  0.00  0.00  0.09  0.00
  YS02001759YS02001757    1.00   0.00  0.00  0.00  1.00  0.00  0.00  0.00  0.65  0.00
  YS02001762YS02001759    1.00   0.00  0.00  0.00  1.00  0.00  0.00  0.00  0.07  0.00
  YS02001765YS02001762    1.00   0.00  0.00  0.00  1.00  0.00  0.00  0.00  0.72  0.00
  YS02001767YS02001765    1.00   0.00  0.00  0.00  1.00  0.00  0.00  0.00  0.00  0.00
  YS02001770YS02001767    1.00   0.00  0.00  0.00  1.00  0.00  0.00  0.00  0.00  0.00
  YS02001774YS02001770    1.00   0.00  0.13  0.00  0.71  0.00  0.15  0.00  0.03  0.00
  YS02001779YS02001774    1.00   0.00  0.00  0.00  1.00  0.00  0.00  0.00  0.79  0.00
  YS02001783YS02001784    1.00   0.00  0.19  0.00  0.81  0.00  0.00  0.00  0.54  0.00
  YS02001784YS02001785    1.00   0.00  0.00  0.00  1.00  0.00  0.00  0.00  0.17  0.00
  YS02001786YS02001788    1.00   0.00  0.00  0.00  0.79  0.21  0.00  0.00  0.00  0.00
  YS02001788YS02001790    1.00   0.00  0.00  0.00  0.22  0.78  0.00  0.00  0.80  0.00
  YS02001790YS02001791    1.00   0.00  0.00  0.00  0.01  0.99  0.00  0.00  0.16  0.00
  YS02001791YS02001793    1.00   0.00  0.00  0.00  0.00  1.00  0.00  0.00  0.01  0.00
  YS02001793JiankangQianchi    1.00   0.00  0.00  0.00  0.00  1.00  0.00  0.00  0.21  0.00
  YS02001882YS02001884    1.00   0.15  0.01  0.00  0.84  0.00  0.00  0.00  0.00  0.00
  YS02001884YS02001887    1.00   0.06  0.05  0.00  0.89  0.00  0.00  0.00  0.00  0.00
  YS02001887YS02001890    1.00   0.00  0.00  0.00  0.97  0.00  0.03  0.00  0.00  0.00
  YS02001890YS02001895    1.00   0.00  0.17  0.00  0.83  0.00  0.00  0.00  0.00  0.00
  YS02001895YS02001898    1.00   0.17  0.00  0.00  0.81  0.00  0.02  0.00  0.00  0.00
  YS02001898YS02001901    1.00   0.17  0.00  0.00  0.83  0.00  0.00  0.00  0.01  0.00
  YS02001901YS02001904    1.00   0.17  0.00  0.00  0.83  0.00  0.00  0.00  0.00  0.00
  YS02001904YS02001907    1.00   0.00  0.17  0.00  0.83  0.00  0.00  0.00  0.00  0.00
  YS02001907YS02006553    1.00   0.00  0.02  0.00  0.98  0.00  0.00  0.00  0.00  0.00
  YS02001910YS02001907    1.00   0.00  0.00  0.00  0.97  0.00  0.00  0.03  0.12  0.00
  YS02001915YS02001910    1.00   0.00  0.00  0.00  0.96  0.04  0.00  0.00  0.16  0.00
  YS02001918YS02001915    1.00   0.00  0.01  0.00  0.98  0.02  0.00  0.00  0.75  0.00
  YS02001920YS02001918    1.00   0.00  0.01  0.00  0.99  0.00  0.00  0.00  0.00  0.00
  YS02001923YS02001920    1.00   0.00  0.00  0.00  1.00  0.00  0.00  0.00  0.93  0.00
  YS02001926YS02001923    1.00   0.00  0.07  0.00  0.06  0.00  0.87  0.00  0.00  0.00
  YS02001929YS02001926    1.00   0.00  0.13  0.00  0.87  0.00  0.00  0.00  0.82  0.00
  YS02006553YS02006556    1.00   0.01  0.00  0.00  0.99  0.00  0.00  0.00  0.03  0.00
  YS02006556YS02006558    1.00   0.00  0.00  0.00  1.00  0.00  0.00  0.00  0.00  0.00
  YS02006558YS02006561    1.00   0.18  0.00  0.00  0.05  0.76  0.00  0.00  0.19  0.00
  YS02006561YS02001783    1.00   0.18  0.00  0.00  0.09  0.73  0.00  0.00  0.68  0.00
  YS02163301YS02001633    1.00   0.00  0.16  0.00  0.84  0.00  0.00  0.00  0.00  0.00
  YS02163601YS02164001    1.00   0.00  0.08  0.00  0.92  0.00  0.00  0.00  0.00  0.00
  YS02164001YS02001641    1.00   0.01  0.08  0.00  0.92  0.00  0.00  0.00  0.06  0.00
  
  
  *************************
  Conduit Surcharge Summary
  *************************
  
  ----------------------------------------------------------------------------
                                                           Hours        Hours 
                         --------- Hours Full --------   Above Full   Capacity
  Conduit                Both Ends  Upstream  Dnstream   Normal Flow   Limited
  ----------------------------------------------------------------------------
  WS02003072WS02003073        0.01      0.01      0.01      1.59         0.01
  WS02004404WS02004405        0.01      0.01      0.01      3.15         0.01
  WS02004405WS02004406        0.01      0.01      0.01      0.72         0.01
  WS02006109WS02006110        0.06      0.06      1.96      0.09         0.01
  WS02006110WS02006113        0.01      0.01      1.94      0.01         0.01
  WS02006111WS02006112        0.01      0.01      2.14      0.01         0.01
  WS02006112WS02006115        0.01      0.01      1.20      0.01         0.01
  WS02006228WS02006109        1.89      1.96      1.89      2.42         1.89
  WS02006229WS02006228        1.87      1.90      1.87      2.21         1.87
  WS02006230WS02006229        2.05      2.12      2.05      4.17         2.05
  WS02006231WS02006230        0.06      0.06      1.21      3.50         0.01
  WS02006232WS02006231        0.93      0.93      1.98      1.15         0.01
  WS02006234WS02006232        1.81      1.81      1.98      0.71         0.73
  WS02006235WS02006234        1.49      1.53      1.80      3.15         0.25
  WS02006238WS02006235        1.86      1.86      2.00      0.01         0.09
  WS02006239WS02006238        1.91      1.97      1.93      1.88         1.20
  WS02006240WS02006239        1.78      1.84      1.83      1.87         1.17
  WS02006242WS02006240        1.79      1.79      2.04      2.21         0.03
  WS02006243WS02006242        1.79      1.79      1.94      0.01         0.31
  WS02006245WS02006243        1.71      1.75      1.74      1.89         1.05
  WS02006247WS02006245        1.71      1.80      1.71      2.60         1.49
  WS02006248WS02006247        1.71      1.73      1.76      0.01         0.55
  WS02006249WS02006248        1.68      1.68      1.73      2.49         0.03
  WS02006251WS02006249        1.72      1.79      1.73      2.31         1.50
  WS02006252WS02006251        2.50      2.51      2.51      2.51         0.01
  WS02006256WS02006235        2.38      3.22      5.79      1.75         0.06
  YS02001580YS02001583        0.55      0.56      0.58      0.01         0.01
  YS02001583YS02001586        0.56      0.56      0.65      0.01         0.01
  YS02001586YS02001590        0.66      0.66      0.73      0.01         0.01
  YS02001590YS02001593        0.73      0.73      0.75      0.77         0.01
  YS02001593YS02001596        0.74      0.74      0.85      0.01         0.01
  YS02001596YS02001600        0.90      0.90      1.01      0.01         0.01
  YS02001600YS02001601        1.07      1.07      1.36      0.01         0.01
  YS02001601YS02001602        1.24      1.24      1.41      1.04         0.01
  YS02001602YS02001605        1.18      1.18      1.24      2.32         0.01
  YS02001605YS02001607        1.14      1.18      1.14      1.32         1.14
  YS02001607YS02001610        0.66      0.66      0.69      0.01         0.01
  YS02001610YS02001613        0.65      0.65      0.69      0.01         0.01
  YS02001613YS02001616        0.61      0.61      0.65      0.01         0.01
  YS02001616YS02001619        0.60      0.60      0.61      0.01         0.02
  YS02001619YS02001622        0.59      0.60      0.59      0.78         0.57
  YS02001622YS02001625        0.59      0.59      0.79      0.01         0.01
  YS02001625YS02001629        0.49      0.49      0.79      0.01         0.01
  YS02001629YS02163301        0.77      0.77      0.77      0.36         0.35
  YS02001633YS02163601        0.80      0.80      0.83      0.48         0.47
  YS02001641YS02001644        0.60      0.67      0.60      1.45         0.60
  YS02001644YS02001647        0.35      0.35      0.60      0.03         0.01
  YS02001647YS02001649        0.35      0.35      0.38      0.01         0.01
  YS02001649YS02001757        0.37      0.38      0.37      0.39         0.27
  YS02001652YS02001649        0.29      0.29      0.38      0.01         0.01
  YS02001655YS02001652        0.22      0.22      0.28      0.01         0.01
  YS02001658YS02001655        0.15      0.15      0.22      0.01         0.01
  YS02001661YS02001658        0.01      0.01      0.15      0.01         0.01
  YS02001664YS02001661        0.01      0.01      0.04      0.01         0.01
  YS02001745YS02001748        0.01      0.01      0.08      0.01         0.01
  YS02001748YS02001751        0.12      0.12      0.16      0.01         0.01
  YS02001751YS02001754        0.16      0.16      0.21      0.01         0.01
  YS02001754YS02001757        0.23      0.23      0.37      0.01         0.01
  YS02001757CaochengTiaoxuchi        0.01      0.37      0.01      0.48         0.01
  YS02001759YS02001757        0.32      0.32      0.37      0.01         0.02
  YS02001762YS02001759        0.30      0.30      0.32      0.01         0.03
  YS02001765YS02001762        0.29      0.29      0.30      0.01         0.01
  YS02001767YS02001765        0.28      0.28      0.29      0.01         0.04
  YS02001770YS02001767        0.28      0.28      0.28      0.55         0.28
  YS02001774YS02001770        0.27      0.27      0.31      0.01         0.01
  YS02001779YS02001774        0.23      0.23      0.31      0.01         0.01
  YS02001783YS02001784        0.47      0.50      0.47      0.66         0.47
  YS02001784YS02001785        0.36      0.47      0.36      0.90         0.36
  YS02001786YS02001788        0.01      0.36      0.01      0.78         0.01
  YS02001790YS02001791        0.01      0.01      0.01      0.46         0.01
  YS02001882YS02001884        0.44      0.44      0.45      0.01         0.01
  YS02001884YS02001887        0.48      0.48      0.49      0.01         0.01
  YS02001887YS02001890        0.50      0.50      0.51      0.09         0.01
  YS02001890YS02001895        0.43      0.43      0.53      0.01         0.01
  YS02001895YS02001898        0.42      0.42      0.43      0.01         0.01
  YS02001898YS02001901        0.43      0.43      0.47      0.01         0.01
  YS02001901YS02001904        0.46      0.46      0.47      0.01         0.01
  YS02001904YS02001907        0.46      0.46      0.76      0.01         0.01
  YS02001907YS02006553        0.91      0.91      0.99      0.01         0.01
  YS02001910YS02001907        0.53      0.53      0.75      0.01         0.01
  YS02001915YS02001910        0.44      0.44      0.53      0.01         0.01
  YS02001918YS02001915        0.36      0.36      0.44      0.01         0.01
  YS02001920YS02001918        0.36      0.36      0.37      0.01         0.01
  YS02001923YS02001920        0.32      0.32      0.37      0.01         0.01
  YS02001926YS02001923        0.06      0.06      0.11      0.01         0.01
  YS02001929YS02001926        0.01      0.01      0.11      0.01         0.01
  YS02006553YS02006556        0.63      0.63      0.76      0.01         0.01
  YS02006556YS02006558        0.69      0.69      0.78      0.01         0.01
  YS02006558YS02006561        0.39      0.61      0.39      0.86         0.39
  YS02006561YS02001783        0.32      0.32      0.50      0.01         0.01
  YS02163301YS02001633        0.77      0.77      0.82      0.01         0.02
  YS02163601YS02164001        0.69      0.69      0.83      0.30         0.01
  YS02164001YS02001641        0.67      0.69      0.67      0.73         0.52
  
  
  ***************
  Pumping Summary
  ***************
  
  ---------------------------------------------------------------------------------------------------------
                                                  Min       Avg       Max     Total     Power    % Time Off
                        Percent   Number of      Flow      Flow      Flow    Volume     Usage    Pump Curve
  Pump                 Utilized   Start-Ups       LPS       LPS       LPS  10^6 ltr     Kw-hr    Low   High
  ---------------------------------------------------------------------------------------------------------
  CC-R1                   23.43          10      0.00    683.00    683.00     4.561     73.36    0.0  100.0
  CC-R2                   23.43          10      0.00    683.00    683.00     4.561     73.36    0.0  100.0
  CC-S1                   31.70          20      0.00    200.00    200.00     1.807     15.07    0.0   55.4
  CC-S2                   31.70          20      0.00    200.00    200.00     1.807     15.07    0.0   55.4
  JK-R1                    5.09         395      0.00    998.30   1000.00     1.448      3.55    0.0    0.0
  JK-R2                    5.09         395      0.00    998.30   1000.00     1.448      3.55    0.0    0.0
  JK-S                    18.84         653      0.00    296.84    300.00     1.562     35.82    0.0    0.0
  

  Analysis begun on:  Thu Jan 16 14:22:47 2025
  Analysis ended on:  Thu Jan 16 14:22:48 2025
  Total elapsed time: 00:00:01