
  EPA STORM WATER MANAGEMENT MODEL - VERSION 5.2 (Build 5.2.4)
  PYSWMM TOOLKIT API - VERSION v1.0 (2023-11-27)
  ------------------------------------------------------------

  WARNING 04: minimum elevation drop used for Conduit WS02004404WS02004405
  WARNING 03: negative offset ignored for Link YS02001904YS02001907
  
  ****************
  Analysis Options
  ****************
  Flow Units ............... LPS
  Process Models:
    Rainfall/Runoff ........ YES
    RDII ................... NO
    Snowmelt ............... NO
    Groundwater ............ NO
    Flow Routing ........... YES
    Ponding Allowed ........ NO
    Water Quality .......... NO
  Infiltration Method ...... HORTON
  Flow Routing Method ...... DYNWAVE
  Surcharge Method ......... EXTRAN
  Starting Date ............ 08/28/2015 08:00:00
  Ending Date .............. 08/28/2015 16:00:00
  Antecedent Dry Days ...... 8.0
  Report Time Step ......... 00:01:00
  Wet Time Step ............ 00:01:00
  Dry Time Step ............ 00:01:00
  Routing Time Step ........ 30.00 sec
  Variable Time Step ....... YES
  Maximum Trials ........... 8
  Number of Threads ........ 4
  Head Tolerance ........... 0.001500 m
  
  
  **************************        Volume         Depth
  Runoff Quantity Continuity     hectare-m            mm
  **************************     ---------       -------
  Total Precipitation ......         1.931        58.212
  Evaporation Loss .........         0.000         0.000
  Infiltration Loss ........         0.097         2.920
  Surface Runoff ...........         1.802        54.311
  Final Storage ............         0.033         0.995
  Continuity Error (%) .....        -0.024
  
  
  **************************        Volume        Volume
  Flow Routing Continuity        hectare-m      10^6 ltr
  **************************     ---------     ---------
  Dry Weather Inflow .......         0.025         0.248
  Wet Weather Inflow .......         1.801        18.012
  Groundwater Inflow .......         0.000         0.000
  RDII Inflow ..............         0.000         0.000
  External Inflow ..........         0.083         0.825
  External Outflow .........         1.651        16.506
  Flooding Loss ............         0.519         5.193
  Evaporation Loss .........         0.000         0.000
  Exfiltration Loss ........         0.000         0.000
  Initial Stored Volume ....         0.243         2.431
  Final Stored Volume ......         0.039         0.392
  Continuity Error (%) .....        -2.672
  
  
  *************************
  Highest Continuity Errors
  *************************
  Node WS02006256 (-16.18%)
  Node JK-storage (-7.95%)
  Node YS02001583 (-6.73%)
  Node YS02001884 (5.25%)
  
  
  ***************************
  Time-Step Critical Elements
  ***************************
  Link WS02006238WS02006235 (41.72%)
  Link YS02001793JiankangQianchi (27.05%)
  Link WS02003066WSF200 (6.68%)
  Link WS02004404WS02004405 (6.68%)
  Link YS02006556YS02006558 (1.79%)
  
  
  ********************************
  Highest Flow Instability Indexes
  ********************************
  Link WS02006256WS02006235 (42)
  Link WS02006229WS02006228 (40)
  Link WS02006113WS02006111 (37)
  Link WS02006252WS02006251 (35)
  Link WS02006235WS02006234 (31)
  
  
  *********************************
  Most Frequent Nonconverging Nodes
  *********************************
  Node CC-1 (45.00%)
  Node CC-2 (45.00%)
  Node JK-1 (45.00%)
  Node JK-2 (45.00%)
  Node WSC (45.00%)
  
  
  *************************
  Routing Time Step Summary
  *************************
  Minimum Time Step           :     0.00 sec
  Average Time Step           :     2.61 sec
  Maximum Time Step           :     6.43 sec
  % of Time in Steady State   :     0.00
  Average Iterations per Step :     5.26
  % of Steps Not Converging   :    45.00
  Time Step Frequencies       :
     30.000 - 13.228 sec      :     0.00 %
     13.228 -  5.833 sec      :     5.27 %
      5.833 -  2.572 sec      :    36.43 %
      2.572 -  1.134 sec      :    41.98 %
      1.134 -  0.500 sec      :    16.32 %
  
  
  ***************************
  Subcatchment Runoff Summary
  ***************************
  
  ------------------------------------------------------------------------------------------------------------------------------
                            Total      Total      Total      Total     Imperv       Perv      Total       Total     Peak  Runoff
                           Precip      Runon       Evap      Infil     Runoff     Runoff     Runoff      Runoff   Runoff   Coeff
  Subcatchment                 mm         mm         mm         mm         mm         mm         mm    10^6 ltr      LPS
  ------------------------------------------------------------------------------------------------------------------------------
  sub60                     58.21       0.00       0.00       1.76      50.02       5.23      55.25        0.73   527.90   0.949
  sub61                     58.21       0.00       0.00       2.55      47.19       7.35      54.54        1.00   731.10   0.937
  sub62                     58.21       0.00       0.00       1.17      52.27       3.49      55.76        1.53  1025.55   0.958
  sub63                     58.21       0.00       0.00       4.70      40.36      12.19      52.55        1.19   812.95   0.903
  sub64                     58.21       0.00       0.00       2.37      48.27       6.36      54.63        1.31   826.08   0.939
  sub65                     58.21       0.00       0.00       2.05      49.39       5.51      54.91        1.51   923.58   0.943
  sub66                     58.21       0.00       0.00       5.82      40.25      11.06      51.31        2.39  1186.70   0.881
  sub67                     58.21       0.00       0.00       1.13      52.31       3.53      55.84        1.04   796.17   0.959
  sub68                     58.21       0.00       0.00       2.11      48.88       6.04      54.92        1.51  1053.43   0.943
  sub69                     58.21       0.00       0.00       1.86      49.37       6.87      56.24        2.08  1230.84   0.966
  sub70                     58.21       0.00       0.00       6.25      38.25      13.54      51.80        1.50   665.94   0.890
  sub71                     58.21       0.00       0.00       1.20      52.23       3.46      55.69        1.46   895.98   0.957
  sub72                     58.21       0.00       0.00       1.07      52.73       3.01      55.74        0.77   430.63   0.958
  
  
  ******************
  Node Depth Summary
  ******************
  
  ---------------------------------------------------------------------------------
                                 Average  Maximum  Maximum  Time of Max    Reported
                                   Depth    Depth      HGL   Occurrence   Max Depth
  Node                 Type       Meters   Meters   Meters  days hr:min      Meters
  ---------------------------------------------------------------------------------
  WS02003060           JUNCTION     0.23     0.38     5.31     0  02:58        0.38
  WS02003066           JUNCTION     0.19     0.30     5.85     0  02:58        0.30
  WS02003067           JUNCTION     0.49     0.70     6.02     0  02:58        0.70
  WS02003069           JUNCTION     0.26     0.43     5.01     0  02:58        0.43
  WS02003072           JUNCTION     0.32     0.50     4.87     0  02:58        0.50
  WS02003073           JUNCTION     0.18     0.30     4.36     0  03:00        0.30
  WS02004401           JUNCTION     0.60     0.87     6.87     0  02:54        0.87
  WS02004402           JUNCTION     0.63     0.90     6.86     0  02:54        0.90
  WS02004403           JUNCTION     0.65     0.91     6.84     0  02:54        0.91
  WS02004404           JUNCTION     0.72     1.00     6.85     0  02:54        0.99
  WS02004405           JUNCTION     0.71     0.96     6.81     0  02:54        0.96
  WS02004406           JUNCTION     0.72     0.96     6.79     0  02:54        0.95
  WS02004407           JUNCTION     0.18     0.29     6.61     0  02:55        0.29
  WS02004409           JUNCTION     0.39     0.66     6.43     0  02:56        0.66
  WS02004410           JUNCTION     0.42     0.68     6.40     0  02:56        0.68
  WS02004411           JUNCTION     0.43     0.69     6.37     0  02:57        0.69
  WS02004412           JUNCTION     0.45     0.70     6.34     0  02:57        0.69
  WS02004413           JUNCTION     0.61     0.85     6.32     0  02:57        0.85
  WS02006109           JUNCTION     0.67     1.05     7.66     0  02:58        0.99
  WS02006110           JUNCTION     0.66     0.99     7.57     0  02:49        0.94
  WS02006111           JUNCTION     0.18     0.29     6.99     0  02:54        0.29
  WS02006112           JUNCTION     0.76     1.08     6.97     0  02:50        1.07
  WS02006113           JUNCTION     0.28     0.46     7.35     0  02:58        0.46
  WS02006115           JUNCTION     0.49     0.77     6.91     0  02:54        0.77
  WS02006116           JUNCTION     0.57     0.85     6.89     0  02:54        0.85
  WS02006228           JUNCTION     0.67     1.13     7.78     0  02:58        1.08
  WS02006229           JUNCTION     0.64     1.15     7.84     0  02:58        1.08
  WS02006230           JUNCTION     0.65     1.28     8.03     0  02:58        1.14
  WS02006231           JUNCTION     0.46     2.14     9.26     0  02:47        1.07
  WS02006232           JUNCTION     0.60     2.18     9.22     0  02:40        2.18
  WS02006234           JUNCTION     0.53     1.96     9.12     0  01:55        1.96
  WS02006235           JUNCTION     0.58     2.00     9.16     0  01:55        2.00
  WS02006238           JUNCTION     0.61     2.15     9.29     0  01:55        2.15
  WS02006239           JUNCTION     0.57     2.03     9.24     0  01:55        2.03
  WS02006240           JUNCTION     0.53     2.10     9.39     0  01:55        2.10
  WS02006242           JUNCTION     0.60     1.55     8.82     0  01:46        1.55
  WS02006243           JUNCTION     0.52     1.48     8.90     0  01:53        1.48
  WS02006245           JUNCTION     0.52     1.56     9.04     0  01:55        1.56
  WS02006247           JUNCTION     0.54     1.47     8.97     0  01:55        1.47
  WS02006248           JUNCTION     0.50     1.10     8.69     0  01:46        1.10
  WS02006249           JUNCTION     0.53     1.09     8.69     0  01:48        1.09
  WS02006251           JUNCTION     0.52     1.94     9.61     0  01:49        1.15
  WS02006252           JUNCTION     0.34     1.50     9.74     0  00:00        1.04
  WS02006256           JUNCTION     1.11     2.35     9.28     0  00:00        2.35
  WSF200               JUNCTION     0.17     0.29     5.52     0  02:58        0.29
  YS02001580           JUNCTION     0.14     1.05     9.59     0  01:55        0.77
  YS02001583           JUNCTION     0.17     1.14     9.64     0  01:55        0.82
  YS02001586           JUNCTION     0.27     1.13     9.30     0  01:55        1.13
  YS02001590           JUNCTION     0.38     1.40     9.26     0  01:55        1.37
  YS02001593           JUNCTION     0.31     1.34     9.20     0  01:55        1.29
  YS02001596           JUNCTION     0.42     1.69     9.10     0  01:55        1.66
  YS02001600           JUNCTION     0.50     1.87     9.00     0  01:55        1.86
  YS02001601           JUNCTION     0.69     2.06     8.90     0  01:54        2.06
  YS02001602           JUNCTION     0.59     1.87     8.77     0  01:55        1.87
  YS02001605           JUNCTION     0.54     1.78     8.68     0  01:55        1.78
  YS02001607           JUNCTION     0.51     1.65     8.50     0  01:55        1.65
  YS02001610           JUNCTION     0.55     1.68     8.48     0  01:55        1.68
  YS02001613           JUNCTION     0.51     1.70     8.54     0  01:55        1.65
  YS02001616           JUNCTION     0.45     1.61     8.52     0  01:55        1.60
  YS02001619           JUNCTION     0.42     1.61     8.54     0  01:55        1.60
  YS02001622           JUNCTION     0.41     1.61     8.51     0  01:55        1.57
  YS02001625           JUNCTION     0.65     1.78     8.38     0  01:55        1.78
  YS02001629           JUNCTION     0.54     1.85     8.40     0  01:55        1.85
  YS02001633           JUNCTION     0.61     2.02     8.47     0  01:59        2.00
  YS02001641           JUNCTION     0.57     1.95     8.39     0  01:59        1.94
  YS02001644           JUNCTION     0.56     1.92     8.35     0  01:59        1.92
  YS02001647           JUNCTION     0.34     1.81     8.42     0  02:00        1.73
  YS02001649           JUNCTION     0.37     2.05     8.44     0  01:59        1.95
  YS02001652           JUNCTION     0.26     2.14     8.74     0  01:59        1.78
  YS02001655           JUNCTION     0.19     2.19     9.04     0  01:59        1.54
  YS02001658           JUNCTION     0.14     2.30     9.44     0  01:59        1.29
  YS02001661           JUNCTION     0.17     1.89     9.30     0  01:59        1.06
  YS02001664           JUNCTION     0.07     0.97     8.89     0  02:00        0.65
  YS02001745           JUNCTION     0.08     2.19     9.71     0  01:59        0.93
  YS02001748           JUNCTION     0.12     2.27     9.35     0  01:59        1.31
  YS02001751           JUNCTION     0.14     2.20     9.08     0  01:59        1.45
  YS02001754           JUNCTION     0.20     2.20     8.81     0  01:59        1.68
  YS02001757           JUNCTION     0.38     2.21     8.47     0  01:59        1.99
  YS02001759           JUNCTION     0.32     2.20     8.56     0  01:59        1.99
  YS02001762           JUNCTION     0.31     2.15     8.55     0  01:59        1.96
  YS02001765           JUNCTION     0.29     2.10     8.55     0  01:59        1.92
  YS02001767           JUNCTION     0.28     2.03     8.52     0  01:59        1.91
  YS02001770           JUNCTION     0.30     1.95     8.44     0  01:59        1.95
  YS02001774           JUNCTION     0.36     2.02     8.44     0  01:59        2.00
  YS02001779           JUNCTION     0.19     1.68     8.37     0  01:58        1.68
  YS02001783           JUNCTION     0.31     1.45     7.59     0  01:57        1.43
  YS02001784           JUNCTION     0.32     1.34     7.41     0  01:58        1.34
  YS02001786           JUNCTION     0.27     1.08     7.11     0  01:58        1.08
  YS02001788           JUNCTION     0.19     0.63     6.60     0  01:58        0.62
  YS02001790           JUNCTION     0.23     0.72     6.37     0  02:00        0.71
  YS02001791           JUNCTION     0.14     0.44     5.91     0  02:00        0.43
  YS02001793           JUNCTION     0.08     0.26     5.09     0  02:01        0.25
  YS02001882           JUNCTION     0.39     1.77     8.49     0  01:56        1.65
  YS02001884           JUNCTION     0.47     1.84     8.46     0  01:56        1.75
  YS02001887           JUNCTION     0.55     1.87     8.41     0  01:56        1.83
  YS02001890           JUNCTION     0.58     1.81     8.32     0  01:56        1.81
  YS02001895           JUNCTION     0.36     1.58     8.32     0  01:57        1.57
  YS02001898           JUNCTION     0.37     1.59     8.32     0  01:57        1.56
  YS02001901           JUNCTION     0.47     1.69     8.30     0  01:57        1.68
  YS02001904           JUNCTION     0.45     1.65     8.28     0  01:57        1.64
  YS02001907           JUNCTION     0.76     1.96     8.25     0  01:57        1.96
  YS02001910           JUNCTION     0.57     1.96     8.47     0  01:58        1.88
  YS02001915           JUNCTION     0.40     1.91     8.63     0  01:58        1.75
  YS02001918           JUNCTION     0.23     1.81     8.88     0  01:58        1.43
  YS02001920           JUNCTION     0.31     2.14     9.15     0  01:58        1.52
  YS02001923           JUNCTION     0.18     2.03     9.29     0  01:58        1.32
  YS02001926           JUNCTION     0.21     1.90     9.35     0  01:58        1.19
  YS02001929           JUNCTION     0.12     1.78     9.47     0  01:58        1.00
  YS02006553           JUNCTION     0.76     2.03     8.31     0  01:57        2.01
  YS02006556           JUNCTION     0.73     2.08     8.39     0  01:57        2.03
  YS02006558           JUNCTION     0.77     2.14     8.40     0  01:57        2.09
  YS02006561           JUNCTION     0.20     1.14     7.80     0  01:57        1.07
  YS02163301           JUNCTION     0.56     1.92     8.44     0  01:59        1.91
  YS02163601           JUNCTION     0.64     2.04     8.43     0  01:59        2.01
  YS02164001           JUNCTION     0.57     1.95     8.41     0  01:59        1.93
  CC-1                 OUTFALL      0.00     0.00     0.00     0  00:00        0.00
  CC-2                 OUTFALL      0.00     0.00     0.00     0  00:00        0.00
  JK-1                 OUTFALL      0.00     0.00     0.00     0  00:00        0.00
  JK-2                 OUTFALL      0.00     0.00     0.00     0  00:00        0.00
  WSC                  OUTFALL      0.18     0.30     0.97     0  03:00        0.30
  CC-storage           STORAGE      0.20     0.80     6.30     0  00:00        0.77
  JK-storage           STORAGE      0.02     2.99     3.79     0  00:00        0.68
  
  
  *******************
  Node Inflow Summary
  *******************
  
  -------------------------------------------------------------------------------------------------
                                  Maximum  Maximum                  Lateral       Total        Flow
                                  Lateral    Total  Time of Max      Inflow      Inflow     Balance
                                   Inflow   Inflow   Occurrence      Volume      Volume       Error
  Node                 Type           LPS      LPS  days hr:min    10^6 ltr    10^6 ltr     Percent
  -------------------------------------------------------------------------------------------------
  WS02003060           JUNCTION     16.53   548.68     0  02:58       0.471        5.03       0.048
  WS02003066           JUNCTION      0.00   531.76     0  02:58           0        4.56       0.034
  WS02003067           JUNCTION      0.00   531.75     0  02:57           0        4.56       0.094
  WS02003069           JUNCTION      0.32   548.46     0  02:59     0.00912        5.03       0.090
  WS02003072           JUNCTION      0.00   548.19     0  02:58           0        5.03       0.158
  WS02003073           JUNCTION      1.82   550.06     0  02:59      0.0519        5.07       0.124
  WS02004401           JUNCTION      0.00   536.33     0  02:55           0        4.66       0.230
  WS02004402           JUNCTION      0.00   535.86     0  02:55           0        4.65       0.232
  WS02004403           JUNCTION      0.00   536.58     0  02:55           0        4.64       0.227
  WS02004404           JUNCTION      0.16   548.65     0  02:54     0.00462        4.64       0.148
  WS02004405           JUNCTION      0.04   594.00     0  02:55     0.00109        4.63       0.226
  WS02004406           JUNCTION      0.00   539.03     0  02:54           0        4.62       0.465
  WS02004407           JUNCTION      0.00   535.10     0  02:54           0         4.6       0.028
  WS02004409           JUNCTION      0.00   534.50     0  02:55           0         4.6       0.066
  WS02004410           JUNCTION      0.00   533.21     0  02:55           0        4.59       0.108
  WS02004411           JUNCTION      0.00   532.56     0  02:55           0        4.59       0.132
  WS02004412           JUNCTION      0.00   531.99     0  02:57           0        4.58       0.173
  WS02004413           JUNCTION      0.00   532.26     0  02:57           0        4.58       0.316
  WS02006109           JUNCTION      1.23   545.25     0  02:50      0.0351        4.71       0.145
  WS02006110           JUNCTION      0.00   545.91     0  02:58           0         4.7       0.153
  WS02006111           JUNCTION      0.00   559.29     0  02:53           0        4.69       0.029
  WS02006112           JUNCTION      0.00   541.49     0  02:54           0        4.69       0.449
  WS02006113           JUNCTION      0.00   555.78     0  02:58           0         4.7       0.038
  WS02006115           JUNCTION      0.00   548.48     0  02:50           0        4.67       0.161
  WS02006116           JUNCTION      0.00   536.41     0  02:53           0        4.66       0.032
  WS02006228           JUNCTION      0.00   544.03     0  02:50           0        4.68       0.067
  WS02006229           JUNCTION      0.00   543.87     0  02:50           0        4.69       0.153
  WS02006230           JUNCTION     10.28   592.16     0  03:03       0.293        4.69       0.100
  WS02006231           JUNCTION      0.00   573.91     0  03:03           0         4.4      -0.046
  WS02006232           JUNCTION      0.00   564.53     0  02:57           0        4.41       0.272
  WS02006234           JUNCTION      0.00   558.88     0  03:03           0        4.39      -0.405
  WS02006235           JUNCTION      0.00   576.15     0  01:42           0        4.55       0.167
  WS02006238           JUNCTION      0.00   427.70     0  03:12           0        3.47      -0.356
  WS02006239           JUNCTION      0.00   418.56     0  03:12           0        3.33      -0.534
  WS02006240           JUNCTION      0.00   415.59     0  03:11           0        3.27      -0.317
  WS02006242           JUNCTION      0.00   417.38     0  03:11           0        3.27      -0.030
  WS02006243           JUNCTION      0.00   417.76     0  03:11           0        3.27      -0.004
  WS02006245           JUNCTION      0.00   547.00     0  01:46           0         3.3       0.977
  WS02006247           JUNCTION      0.00   492.27     0  01:45           0         3.3      -0.209
  WS02006248           JUNCTION      0.00   544.86     0  01:50           0        3.31       0.134
  WS02006249           JUNCTION      0.00   541.57     0  01:45           0        3.47       0.810
  WS02006251           JUNCTION      0.08   433.00     0  01:45     0.00219        3.47       0.073
  WS02006252           JUNCTION      0.00   400.00     0  00:00           0        3.46      -0.250
  WS02006256           JUNCTION      0.00   325.01     0  03:16           0        1.53     -13.930
  WSF200               JUNCTION      0.00   531.83     0  02:58           0        4.55       0.013
  YS02001580           JUNCTION      0.00   123.46     0  01:55           0      0.0045       1.953
  YS02001583           JUNCTION      0.00   199.03     0  01:55           0      0.0152      -6.310
  YS02001586           JUNCTION    665.94   665.94     0  02:04         1.5        1.51       0.097
  YS02001590           JUNCTION      0.00   317.84     0  02:17           0        1.21      -0.035
  YS02001593           JUNCTION      0.00   317.84     0  02:13           0        1.22       0.019
  YS02001596           JUNCTION      0.00   317.86     0  02:22           0        1.21       0.007
  YS02001600           JUNCTION      0.00   317.89     0  02:18           0        1.21       0.020
  YS02001601           JUNCTION   1230.84  1548.40     0  02:03        2.08         3.3       0.029
  YS02001602           JUNCTION      0.00   532.22     0  01:55           0        2.13       0.026
  YS02001605           JUNCTION      0.00   532.16     0  01:55           0        2.04       0.027
  YS02001607           JUNCTION      0.00   532.02     0  01:55           0        2.04       0.098
  YS02001610           JUNCTION      0.00   628.72     0  02:04           0        2.19       0.110
  YS02001613           JUNCTION      0.00   539.91     0  01:55           0        1.83       0.098
  YS02001616           JUNCTION      0.00   547.00     0  01:55           0        1.83       0.026
  YS02001619           JUNCTION   1186.70  1186.70     0  02:04        2.39        4.07       0.000
  YS02001622           JUNCTION      0.00   967.45     0  02:21           0        3.92       0.002
  YS02001625           JUNCTION      0.00  1248.22     0  02:04           0        4.04       0.222
  YS02001629           JUNCTION      0.00   967.51     0  02:21           0         3.4       0.027
  YS02001633           JUNCTION    923.78  1395.41     0  01:57        1.52        4.75       0.076
  YS02001641           JUNCTION      0.00  1391.01     0  01:57           0         4.6       0.065
  YS02001644           JUNCTION    826.12  1822.90     0  01:57        1.31        5.91       0.058
  YS02001647           JUNCTION      0.00  1823.13     0  01:57           0        5.64       0.007
  YS02001649           JUNCTION      0.00  2086.34     0  01:57           0        6.84       0.004
  YS02001652           JUNCTION      0.00   956.00     0  02:00           0         1.2      -0.066
  YS02001655           JUNCTION      0.15   955.76     0  02:00     0.00439         1.2       0.075
  YS02001658           JUNCTION      0.00   956.17     0  02:00           0        1.19      -0.092
  YS02001661           JUNCTION      0.00   956.04     0  02:00           0        1.19       0.026
  YS02001664           JUNCTION    812.95   812.95     0  02:02        1.19        1.19      -0.018
  YS02001745           JUNCTION    527.90   650.65     0  01:59       0.726       0.728       0.122
  YS02001748           JUNCTION      0.04   577.39     0  02:00     0.00128       0.731      -0.294
  YS02001751           JUNCTION      0.01   579.09     0  02:00    0.000313       0.738       0.048
  YS02001754           JUNCTION      0.26   579.57     0  02:00     0.00741       0.751      -0.098
  YS02001757           JUNCTION      0.00  3339.43     0  02:06           0          10       0.022
  YS02001759           JUNCTION    731.14  1416.00     0  01:59           1        2.43      -0.003
  YS02001762           JUNCTION      0.00   811.76     0  01:59           0        1.43       0.006
  YS02001765           JUNCTION      0.00   810.85     0  01:59           0        1.43       0.013
  YS02001767           JUNCTION      0.54   812.79     0  01:59      0.0152        1.43       0.009
  YS02001770           JUNCTION   1025.70  1025.70     0  02:02        1.53        1.57       0.005
  YS02001774           JUNCTION      0.00   438.51     0  01:58           0       0.176       0.652
  YS02001779           JUNCTION      0.01   445.65     0  01:58    0.000142       0.135      -0.356
  YS02001783           JUNCTION      0.00  1164.98     0  01:59           0        3.67       0.008
  YS02001784           JUNCTION      1.06  1166.02     0  01:59      0.0302         3.7       0.015
  YS02001786           JUNCTION      0.06  1165.86     0  02:00      0.0016        3.71       0.019
  YS02001788           JUNCTION      0.07  1165.76     0  01:59     0.00202        3.71       0.008
  YS02001790           JUNCTION      0.15  1179.49     0  01:59     0.00442        3.71       0.002
  YS02001791           JUNCTION      0.00  1293.04     0  02:00           0        3.71       0.002
  YS02001793           JUNCTION      0.00  1257.85     0  02:01           0        3.71      -0.001
  YS02001882           JUNCTION      0.00    57.67     0  01:56           0      0.0124       5.896
  YS02001884           JUNCTION      0.00    71.21     0  01:56           0      0.0478       5.540
  YS02001887           JUNCTION    796.62   798.28     0  02:01        1.05        1.08       0.418
  YS02001890           JUNCTION      0.00   798.78     0  02:01           0        1.04       0.499
  YS02001895           JUNCTION      0.00   517.22     0  02:05           0       0.956       0.169
  YS02001898           JUNCTION      0.00   517.21     0  02:05           0       0.955       0.040
  YS02001901           JUNCTION      0.00   517.41     0  02:05           0       0.957       0.357
  YS02001904           JUNCTION      0.00   517.38     0  02:06           0       0.961       0.297
  YS02001907           JUNCTION      0.00  1872.45     0  02:02           0        3.25       0.557
  YS02001910           JUNCTION      0.00  1357.58     0  02:02           0         2.3       0.315
  YS02001915           JUNCTION    896.00  1357.27     0  02:02        1.46        2.35       0.072
  YS02001918           JUNCTION      0.00   469.01     0  01:58           0       0.923       0.041
  YS02001920           JUNCTION      2.87   466.59     0  02:02      0.0818       0.904       0.095
  YS02001923           JUNCTION      0.04   464.81     0  01:58     0.00107       0.806      -0.106
  YS02001926           JUNCTION      0.05   683.87     0  01:58     0.00149       0.785      -0.118
  YS02001929           JUNCTION    430.63   560.60     0  01:58       0.766        0.77      -0.020
  YS02006553           JUNCTION      0.00   796.14     0  02:17           0        2.19       0.551
  YS02006556           JUNCTION      0.00   795.78     0  02:18           0         2.2       0.377
  YS02006558           JUNCTION   1054.31  1173.54     0  01:57        1.54        3.71       0.094
  YS02006561           JUNCTION      0.00  1172.96     0  01:57           0        3.68       0.002
  YS02163301           JUNCTION      0.00   967.79     0  02:21           0        3.39       0.049
  YS02163601           JUNCTION      0.11  1394.56     0  01:57     0.00313         4.6       0.110
  YS02164001           JUNCTION      0.00  1393.30     0  01:57           0         4.6       0.055
  CC-1                 OUTFALL       0.00   683.00     0  00:00           0        4.39       0.000
  CC-2                 OUTFALL       0.00   683.00     0  00:00           0        4.39       0.000
  JK-1                 OUTFALL       0.00  1000.00     0  00:00           0        1.33       0.000
  JK-2                 OUTFALL       0.00  1000.00     0  00:00           0        1.33       0.000
  WSC                  OUTFALL       0.00   550.03     0  03:00           0        5.07       0.000
  CC-storage           STORAGE       0.00  3338.60     0  02:06           0        12.2      -0.364
  JK-storage           STORAGE       0.00  1302.34     0  02:01           0        3.86      -7.365
  
  
  **********************
  Node Surcharge Summary
  **********************
  
  Surcharging occurs when water rises above the top of the highest conduit.
  ---------------------------------------------------------------------
                                               Max. Height   Min. Depth
                                   Hours       Above Crown    Below Rim
  Node                 Type      Surcharged         Meters       Meters
  ---------------------------------------------------------------------
  WS02006109           JUNCTION        1.70          0.226        1.594
  WS02006110           JUNCTION        0.12          0.078        1.772
  WS02006112           JUNCTION        1.31          0.082        1.598
  WS02006228           JUNCTION        1.68          0.298        1.902
  WS02006229           JUNCTION        1.71          0.350        2.100
  WS02006230           JUNCTION        0.11          0.200        1.370
  WS02006231           JUNCTION        1.03          1.429        0.101
  WS02006232           JUNCTION        1.81          1.480        0.000
  WS02006234           JUNCTION        1.41          1.240        0.000
  WS02006235           JUNCTION        1.63          1.290        0.000
  WS02006238           JUNCTION        1.75          1.430        0.000
  WS02006239           JUNCTION        1.65          1.290        0.000
  WS02006240           JUNCTION        1.64          1.390        0.000
  WS02006242           JUNCTION        1.79          0.820        0.000
  WS02006243           JUNCTION        1.61          0.770        0.000
  WS02006245           JUNCTION        1.59          0.850        0.000
  WS02006247           JUNCTION        1.63          0.760        0.000
  WS02006248           JUNCTION        1.57          0.380        0.000
  WS02006249           JUNCTION        1.60          0.390        0.000
  WS02006251           JUNCTION        1.34          0.915        0.265
  WS02006252           JUNCTION        2.40          1.100        0.000
  WS02006256           JUNCTION        6.79          2.050        0.000
  YS02001580           JUNCTION        0.55          0.450        0.000
  YS02001583           JUNCTION        0.55          0.500        0.000
  YS02001586           JUNCTION        0.64          0.510        0.000
  YS02001590           JUNCTION        0.71          0.750        0.000
  YS02001593           JUNCTION        0.71          0.721        0.119
  YS02001596           JUNCTION        0.81          0.956        0.114
  YS02001600           JUNCTION        0.96          1.190        0.000
  YS02001601           JUNCTION        1.33          1.440        0.000
  YS02001602           JUNCTION        1.21          1.270        0.000
  YS02001605           JUNCTION        1.15          1.180        0.000
  YS02001607           JUNCTION        0.64          0.653        0.027
  YS02001610           JUNCTION        0.67          0.680        0.000
  YS02001613           JUNCTION        0.63          0.700        0.000
  YS02001616           JUNCTION        0.59          0.610        0.000
  YS02001619           JUNCTION        0.58          0.610        0.000
  YS02001622           JUNCTION        0.57          0.605        0.015
  YS02001625           JUNCTION        0.76          0.780        0.000
  YS02001629           JUNCTION        0.47          0.470        0.000
  YS02001633           JUNCTION        0.76          0.998        0.062
  YS02001641           JUNCTION        0.65          0.949        0.151
  YS02001644           JUNCTION        0.58          0.920        0.000
  YS02001647           JUNCTION        0.36          0.813        0.087
  YS02001649           JUNCTION        0.39          1.050        0.000
  YS02001652           JUNCTION        0.28          1.115        0.015
  YS02001655           JUNCTION        0.21          1.187        0.013
  YS02001658           JUNCTION        0.15          1.300        0.000
  YS02001661           JUNCTION        0.02          0.822        0.568
  YS02001745           JUNCTION        0.01          1.195        0.155
  YS02001748           JUNCTION        0.09          1.190        0.000
  YS02001751           JUNCTION        0.16          1.200        0.000
  YS02001754           JUNCTION        0.21          1.150        0.000
  YS02001757           JUNCTION        0.37          1.210        0.000
  YS02001759           JUNCTION        0.32          1.200        0.010
  YS02001762           JUNCTION        0.31          1.150        0.000
  YS02001765           JUNCTION        0.29          1.100        0.000
  YS02001767           JUNCTION        0.28          1.030        0.000
  YS02001770           JUNCTION        0.27          0.920        0.000
  YS02001774           JUNCTION        0.31          1.017        0.033
  YS02001779           JUNCTION        0.23          0.680        0.000
  YS02001783           JUNCTION        0.49          0.647        0.953
  YS02001784           JUNCTION        0.47          0.540        0.950
  YS02001786           JUNCTION        0.38          0.283        1.147
  YS02001882           JUNCTION        0.44          0.770        0.060
  YS02001884           JUNCTION        0.45          0.784        0.086
  YS02001887           JUNCTION        0.49          0.819        0.131
  YS02001890           JUNCTION        0.50          0.760        0.000
  YS02001895           JUNCTION        0.44          0.577        0.173
  YS02001898           JUNCTION        0.43          0.556        0.184
  YS02001901           JUNCTION        0.47          0.693        0.177
  YS02001904           JUNCTION        0.46          0.646        0.204
  YS02001907           JUNCTION        0.68          0.950        0.000
  YS02001910           JUNCTION        0.52          0.962        0.138
  YS02001915           JUNCTION        0.44          0.910        0.090
  YS02001918           JUNCTION        0.36          0.810        0.000
  YS02001920           JUNCTION        0.38          1.140        0.000
  YS02001923           JUNCTION        0.06          0.820        0.000
  YS02001926           JUNCTION        0.11          0.900        0.000
  YS02001929           JUNCTION        0.01          0.780        0.000
  YS02006553           JUNCTION        0.69          1.030        0.160
  YS02006556           JUNCTION        0.60          1.039        0.311
  YS02006558           JUNCTION        0.59          1.035        0.365
  YS02006561           JUNCTION        0.33          0.335        0.815
  YS02163301           JUNCTION        0.74          0.921        0.109
  YS02163601           JUNCTION        0.79          1.036        0.044
  YS02164001           JUNCTION        0.67          0.948        0.152
  
  
  *********************
  Node Flooding Summary
  *********************
  
  Flooding refers to all water that overflows a node, whether it ponds or not.
  --------------------------------------------------------------------------
                                                             Total   Maximum
                                 Maximum   Time of Max       Flood    Ponded
                        Hours       Rate    Occurrence      Volume     Depth
  Node                 Flooded       LPS   days hr:min    10^6 ltr    Meters
  --------------------------------------------------------------------------
  WS02006232              0.01      3.61      0  02:47       0.000     0.000
  WS02006234              0.01     35.71      0  02:47       0.000     0.000
  WS02006235              0.01     19.97      0  02:47       0.000     0.000
  WS02006238              0.01     13.55      0  02:42       0.000     0.000
  WS02006239              0.01     10.18      0  02:42       0.000     0.000
  WS02006240              0.01     15.65      0  02:42       0.000     0.000
  WS02006242              0.02    155.90      0  01:46       0.001     0.000
  WS02006243              0.01     68.51      0  01:53       0.000     0.000
  WS02006245              0.01      5.29      0  03:03       0.000     0.000
  WS02006247              0.01      4.86      0  03:03       0.000     0.000
  WS02006248              0.36    207.30      0  01:53       0.011     0.000
  WS02006249              1.23    166.67      0  01:50       0.127     0.000
  WS02006252              0.01    265.96      0  01:45       0.001     0.000
  WS02006256              1.39    293.87      0  03:16       0.661     0.000
  YS02001580              0.01    114.24      0  01:55       0.001     0.000
  YS02001583              0.01    122.96      0  01:55       0.000     0.000
  YS02001586              0.44    348.38      0  02:04       0.281     0.000
  YS02001590              0.01      3.57      0  01:55       0.000     0.000
  YS02001600              0.01      1.77      0  01:55       0.000     0.000
  YS02001601              0.57   1150.48      0  02:03       1.169     0.000
  YS02001602              0.41     61.91      0  02:16       0.083     0.000
  YS02001605              0.01      4.19      0  01:55       0.000     0.000
  YS02001610              0.36    628.64      0  02:04       0.509     0.000
  YS02001613              0.01     14.60      0  01:55       0.000     0.000
  YS02001616              0.01     30.51      0  01:55       0.000     0.000
  YS02001619              0.01     70.91      0  01:55       0.000     0.000
  YS02001625              0.30   1248.01      0  02:04       0.776     0.000
  YS02001629              0.09    250.67      0  02:01       0.048     0.000
  YS02001644              0.14    922.40      0  02:01       0.255     0.000
  YS02001649              0.01    150.30      0  01:59       0.001     0.000
  YS02001658              0.01    383.59      0  01:59       0.000     0.000
  YS02001748              0.01    294.18      0  01:59       0.001     0.000
  YS02001751              0.01     71.14      0  01:59       0.000     0.000
  YS02001754              0.01     59.52      0  01:59       0.000     0.000
  YS02001757              0.01     53.96      0  01:59       0.000     0.000
  YS02001762              0.01     12.94      0  01:59       0.000     0.000
  YS02001765              0.01      7.74      0  01:59       0.000     0.000
  YS02001767              0.01      5.56      0  01:59       0.000     0.000
  YS02001770              0.01     53.25      0  01:59       0.001     0.000
  YS02001779              0.13    425.87      0  02:01       0.120     0.000
  YS02001890              0.15    285.38      0  02:01       0.082     0.000
  YS02001907              0.31   1767.14      0  02:02       1.059     0.000
  YS02001918              0.01    253.62      0  01:58       0.003     0.000
  YS02001920              0.01     63.43      0  01:58       0.000     0.000
  YS02001923              0.01    339.77      0  01:58       0.002     0.000
  YS02001926              0.01    497.79      0  01:58       0.002     0.000
  YS02001929              0.01    156.40      0  01:58       0.000     0.000
  
  
  **********************
  Storage Volume Summary
  **********************
  
  ------------------------------------------------------------------------------------------------
                         Average    Avg   Evap  Exfil     Maximum    Max    Time of Max    Maximum
                          Volume   Pcnt   Pcnt   Pcnt      Volume   Pcnt     Occurrence    Outflow
  Storage Unit           1000 m³   Full   Loss   Loss     1000 m³   Full    days hr:min        LPS
  ------------------------------------------------------------------------------------------------
  CC-storage               0.545    8.5    0.0    0.0       2.229   34.8       0  00:00    1783.53
  JK-storage               0.001    0.4    0.0    0.0       0.150   51.6       0  00:00    2300.00
  
  
  ***********************
  Outfall Loading Summary
  ***********************
  
  -----------------------------------------------------------
                         Flow       Avg       Max       Total
                         Freq      Flow      Flow      Volume
  Outfall Node           Pcnt       LPS       LPS    10^6 ltr
  -----------------------------------------------------------
  CC-1                  41.94    683.00    683.00       4.386
  CC-2                  41.94    683.00    683.00       4.386
  JK-1                  10.16    998.73   1000.00       1.334
  JK-2                  10.16    998.73   1000.00       1.334
  WSC                   99.95    256.57    550.03       5.065
  -----------------------------------------------------------
  System                40.83   3620.02   3897.80      16.506
  
  
  ********************
  Link Flow Summary
  ********************
  
  -----------------------------------------------------------------------------
                                 Maximum  Time of Max   Maximum    Max/    Max/
                                  |Flow|   Occurrence   |Veloc|    Full    Full
  Link                 Type          LPS  days hr:min     m/sec    Flow   Depth
  -----------------------------------------------------------------------------
  1                    CONDUIT    550.03     0  03:00      2.82    0.19    0.30
  WS02003060WS02003069 CONDUIT    548.14     0  02:59      1.64    0.21    0.34
  WS02003066WSF200     CONDUIT    531.83     0  02:58      2.85    0.09    0.22
  WS02003067WS02003066 CONDUIT    531.76     0  02:58      1.20    0.17    0.41
  WS02003069WS02003072 CONDUIT    548.19     0  02:58      1.37    0.26    0.39
  WS02003072WS02003073 CONDUIT    548.24     0  02:59      1.43    1.18    0.37
  WS02004401WS02004402 CONDUIT    535.86     0  02:55      1.22    0.64    0.88
  WS02004402WS02004403 CONDUIT    536.58     0  02:55      1.24    0.77    0.91
  WS02004403WS02004404 CONDUIT    548.49     0  02:54      1.24    0.40    0.95
  WS02004404WS02004405 CONDUIT    593.96     0  02:55      1.45    5.82    0.97
  WS02004405WS02004406 CONDUIT    539.03     0  02:54      1.46    1.06    0.96
  WS02004406WS02004407 CONDUIT    535.10     0  02:54      1.04    0.24    0.62
  WS02004407WS02004409 CONDUIT    534.50     0  02:55      1.59    0.19    0.48
  WS02004409WS02004410 CONDUIT    533.21     0  02:55      1.06    0.69    0.67
  WS02004410WS02004411 CONDUIT    532.56     0  02:55      1.12    0.73    0.68
  WS02004411WS02004412 CONDUIT    531.99     0  02:57      1.22    0.76    0.69
  WS02004412WS02004413 CONDUIT    532.26     0  02:57      1.22    0.36    0.77
  WS02004413WS02003067 CONDUIT    531.75     0  02:57      1.10    0.23    0.59
  WS02006109WS02006110 CONDUIT    545.91     0  02:58      1.09    1.05    1.00
  WS02006110WS02006113 CONDUIT    555.78     0  02:58      1.32    0.51    0.78
  WS02006111WS02006112 CONDUIT    541.49     0  02:54      1.95    0.26    0.67
  WS02006112WS02006115 CONDUIT    548.48     0  02:50      0.82    0.32    0.88
  WS02006113WS02006111 CONDUIT    559.29     0  02:53      2.46    0.67    0.46
  WS02006115WS02006116 CONDUIT    536.41     0  02:53      1.29    0.69    0.78
  WS02006116WS02004401 CONDUIT    536.33     0  02:55      1.21    0.74    0.86
  WS02006228WS02006109 CONDUIT    544.02     0  02:50      1.08    2.38    1.00
  WS02006229WS02006228 CONDUIT    544.03     0  02:50      1.12    1.80    1.00
  WS02006230WS02006229 CONDUIT    543.87     0  02:50      1.41   12.10    1.00
  WS02006231WS02006230 CONDUIT    581.88     0  03:03      1.52    8.83    1.00
  WS02006232WS02006231 CONDUIT    573.91     0  03:03      1.49    1.20    1.00
  WS02006234WS02006232 CONDUIT    564.53     0  02:57      1.47    1.14    1.00
  WS02006235WS02006234 CONDUIT    558.88     0  03:03      1.45    5.90    1.00
  WS02006238WS02006235 CONDUIT    447.56     0  03:08      1.45    1.00    1.00
  WS02006239WS02006238 CONDUIT    427.70     0  03:12      1.13    1.37    1.00
  WS02006240WS02006239 CONDUIT    418.56     0  03:12      1.24    1.32    1.00
  WS02006242WS02006240 CONDUIT    415.59     0  03:11      1.16    1.65    1.00
  WS02006243WS02006242 CONDUIT    417.38     0  03:11      1.44    0.89    1.00
  WS02006245WS02006243 CONDUIT    417.76     0  03:11      1.44    1.24    1.00
  WS02006247WS02006245 CONDUIT    547.00     0  01:46      1.47    4.34    1.00
  WS02006248WS02006247 CONDUIT    492.27     0  01:45      1.44    1.07    1.00
  WS02006249WS02006248 CONDUIT    544.86     0  01:50      1.43    2.98    1.00
  WS02006251WS02006249 CONDUIT    541.57     0  01:45      1.99    1.56    1.00
  WS02006252WS02006251 CONDUIT    416.33     0  01:49     25.31    1.53    1.00
  WS02006256WS02006235 CONDUIT    288.91     0  00:00      4.23    3.06    1.00
  WSF200WS02003060     CONDUIT    532.15     0  02:58      2.06    0.12    0.28
  YS02001580YS02001583 CONDUIT    123.46     0  01:55      0.74    0.48    1.00
  YS02001583YS02001586 CONDUIT    174.57     0  01:55      0.74    0.26    1.00
  YS02001586YS02001590 CONDUIT    317.84     0  02:17      1.26    0.56    1.00
  YS02001590YS02001593 CONDUIT    317.84     0  02:13      1.12    2.00    1.00
  YS02001593YS02001596 CONDUIT    317.86     0  02:22      1.76    0.50    1.00
  YS02001596YS02001600 CONDUIT    317.89     0  02:18      1.23    0.62    1.00
  YS02001600YS02001601 CONDUIT    317.87     0  02:16      1.12    0.55    1.00
  YS02001601YS02001602 CONDUIT    532.22     0  01:55      1.88    1.92    1.00
  YS02001602YS02001605 CONDUIT    532.16     0  01:55      1.88   11.26    1.00
  YS02001605YS02001607 CONDUIT    532.02     0  01:55      1.88    2.92    1.00
  YS02001607YS02001610 CONDUIT    536.03     0  01:55      0.68    0.51    1.00
  YS02001610YS02001613 CONDUIT    539.91     0  01:55      0.69    0.62    1.00
  YS02001613YS02001616 CONDUIT    547.00     0  01:55      0.70    0.47    1.00
  YS02001616YS02001619 CONDUIT    515.52     0  01:55      0.67    0.90    1.00
  YS02001619YS02001622 CONDUIT    967.45     0  02:21      1.23    1.43    1.00
  YS02001622YS02001625 CONDUIT    967.41     0  02:21      1.23    0.52    1.00
  YS02001625YS02001629 CONDUIT    967.51     0  02:21      1.23    0.46    1.00
  YS02001629YS02163301 CONDUIT    967.79     0  02:21      1.23    1.19    1.00
  YS02001633YS02163601 CONDUIT   1394.45     0  01:57      1.78    1.46    1.00
  YS02001641YS02001644 CONDUIT   1391.66     0  01:57      1.77    4.50    1.00
  YS02001644YS02001647 CONDUIT   1823.13     0  01:57      2.34    1.07    1.00
  YS02001647YS02001649 CONDUIT   1845.02     0  01:57      2.35    0.97    1.00
  YS02001649YS02001757 CONDUIT   2096.53     0  01:57      2.67    1.27    1.00
  YS02001652YS02001649 CONDUIT    955.82     0  02:00      1.22    0.47    1.00
  YS02001655YS02001652 CONDUIT    956.00     0  02:00      1.34    0.46    1.00
  YS02001658YS02001655 CONDUIT    955.61     0  02:00      1.92    0.41    1.00
  YS02001661YS02001658 CONDUIT    956.17     0  02:00      2.38    0.38    1.00
  YS02001664YS02001661 CONDUIT    956.04     0  02:00      2.40    0.30    0.98
  YS02001745YS02001748 CONDUIT    577.34     0  02:00      2.26    0.22    1.00
  YS02001748YS02001751 CONDUIT    579.08     0  02:00      1.75    0.29    1.00
  YS02001751YS02001754 CONDUIT    579.31     0  02:00      1.42    0.28    1.00
  YS02001754YS02001757 CONDUIT    580.30     0  02:00      0.74    0.23    1.00
  YS02001757CaochengTiaoxuchi CONDUIT   3338.60     0  02:06      7.29    1.45    0.83
  YS02001759YS02001757 CONDUIT   1418.67     0  01:59      1.81    1.01    1.00
  YS02001762YS02001759 CONDUIT    811.48     0  01:59      1.03    0.93    1.00
  YS02001765YS02001762 CONDUIT    811.76     0  01:59      1.03    0.76    1.00
  YS02001767YS02001765 CONDUIT    810.85     0  01:59      1.03    1.02    1.00
  YS02001770YS02001767 CONDUIT    812.25     0  01:59      1.03    3.22    1.00
  YS02001774YS02001770 CONDUIT    438.51     0  01:58      0.56    0.28    1.00
  YS02001779YS02001774 CONDUIT    445.64     0  01:58      0.58    0.22    1.00
  YS02001783YS02001784 CONDUIT   1164.96     0  01:59      2.32    1.61    1.00
  YS02001784YS02001785 CONDUIT   1165.81     0  02:00      2.32    2.71    1.00
  YS02001786YS02001788 CONDUIT   1165.69     0  01:59      2.49    2.25    0.89
  YS02001788YS02001790 CONDUIT   1179.34     0  01:59      2.75    0.87    0.84
  YS02001790YS02001791 CONDUIT   1293.04     0  02:00      3.43    1.41    0.70
  YS02001791YS02001793 CONDUIT   1257.85     0  02:01      6.37    0.54    0.43
  YS02001793JiankangQianchi CONDUIT   1302.34     0  02:01     24.16    0.10    0.50
  YS02001882YS02001884 CONDUIT     57.67     0  01:56      0.11    0.07    1.00
  YS02001884YS02001887 CONDUIT     71.21     0  01:56      0.09    0.09    1.00
  YS02001887YS02001890 CONDUIT    798.78     0  02:01      1.02    1.37    1.00
  YS02001890YS02001895 CONDUIT    517.22     0  02:05      0.66    0.24    1.00
  YS02001895YS02001898 CONDUIT    517.21     0  02:05      0.66    0.90    1.00
  YS02001898YS02001901 CONDUIT    517.41     0  02:05      0.66    0.33    1.00
  YS02001901YS02001904 CONDUIT    517.38     0  02:06      0.66    0.80    1.00
  YS02001904YS02001907 CONDUIT    517.46     0  02:05      0.66    0.18    1.00
  YS02001907YS02006553 CONDUIT    796.14     0  02:17      0.88    0.94    1.00
  YS02001910YS02001907 CONDUIT   1357.57     0  02:02      1.73    0.77    1.00
  YS02001915YS02001910 CONDUIT   1357.58     0  02:02      1.73    0.67    1.00
  YS02001918YS02001915 CONDUIT    469.01     0  01:58      0.60    0.26    1.00
  YS02001920YS02001918 CONDUIT    466.52     0  02:02      0.64    0.45    1.00
  YS02001923YS02001920 CONDUIT    464.77     0  01:58      0.70    0.21    1.00
  YS02001926YS02001923 CONDUIT    462.84     0  02:02      0.97    0.66    1.00
  YS02001929YS02001926 CONDUIT    461.34     0  02:02      1.16    0.22    1.00
  YS02006553YS02006556 CONDUIT    795.78     0  02:18      1.01    0.68    1.00
  YS02006556YS02006558 CONDUIT    796.88     0  02:18      1.01    0.63    1.00
  YS02006558YS02006561 CONDUIT   1172.96     0  01:57      4.15    2.59    1.00
  YS02006561YS02001783 CONDUIT   1164.98     0  01:59      2.32    0.60    1.00
  YS02163301YS02001633 CONDUIT    967.55     0  02:21      1.23    0.91    1.00
  YS02163601YS02164001 CONDUIT   1393.30     0  01:57      1.77    1.23    1.00
  YS02164001YS02001641 CONDUIT   1391.01     0  01:57      1.77    1.90    1.00
  CC-R1                PUMP       683.00     0  00:00              1.00
  CC-R2                PUMP       683.00     0  00:00              1.00
  CC-S1                PUMP       200.00     0  00:00              1.00
  CC-S2                PUMP       200.00     0  00:00              1.00
  JK-R1                PUMP      1000.00     0  00:00              1.00
  JK-R2                PUMP      1000.00     0  00:00              1.00
  JK-S                 PUMP       300.00     0  00:00              1.00
  
  
  ***************************
  Flow Classification Summary
  ***************************
  
  -------------------------------------------------------------------------------------
                      Adjusted    ---------- Fraction of Time in Flow Class ---------- 
                       /Actual         Up    Down  Sub   Sup   Up    Down  Norm  Inlet 
  Conduit               Length    Dry  Dry   Dry   Crit  Crit  Crit  Crit  Ltd   Ctrl  
  -------------------------------------------------------------------------------------
  1                       1.00   0.00  0.00  0.00  0.00  1.00  0.00  0.00  0.31  0.00
  WS02003060WS02003069    1.00   0.00  0.00  0.00  0.98  0.02  0.00  0.00  0.75  0.00
  WS02003066WSF200        1.00   0.05  0.00  0.00  0.00  0.95  0.00  0.00  0.86  0.00
  WS02003067WS02003066    1.00   0.05  0.00  0.00  0.95  0.00  0.00  0.00  0.00  0.00
  WS02003069WS02003072    1.00   0.00  0.00  0.00  0.99  0.01  0.00  0.00  0.77  0.00
  WS02003072WS02003073    1.00   0.00  0.00  0.00  0.00  0.00  0.00  1.00  0.00  0.00
  WS02004401WS02004402    1.00   0.02  0.00  0.00  0.98  0.00  0.00  0.00  0.00  0.00
  WS02004402WS02004403    1.00   0.02  0.00  0.00  0.98  0.00  0.00  0.00  0.00  0.00
  WS02004403WS02004404    1.00   0.00  0.03  0.00  0.97  0.00  0.00  0.00  0.00  0.00
  WS02004404WS02004405    1.00   0.00  0.00  0.00  1.00  0.00  0.00  0.00  0.01  0.00
  WS02004405WS02004406    1.00   0.00  0.00  0.00  1.00  0.00  0.00  0.00  0.00  0.00
  WS02004406WS02004407    1.00   0.00  0.03  0.00  0.97  0.00  0.00  0.00  0.00  0.00
  WS02004407WS02004409    1.00   0.03  0.00  0.00  0.95  0.01  0.00  0.00  0.96  0.00
  WS02004409WS02004410    1.00   0.03  0.00  0.00  0.96  0.00  0.00  0.00  0.00  0.00
  WS02004410WS02004411    1.00   0.04  0.00  0.00  0.96  0.00  0.00  0.00  0.00  0.00
  WS02004411WS02004412    1.00   0.04  0.00  0.00  0.96  0.00  0.00  0.00  0.00  0.00
  WS02004412WS02004413    1.00   0.04  0.00  0.00  0.96  0.00  0.00  0.00  0.00  0.00
  WS02004413WS02003067    1.00   0.04  0.01  0.00  0.00  0.00  0.95  0.00  0.00  0.00
  WS02006109WS02006110    1.00   0.00  0.01  0.00  0.98  0.00  0.01  0.00  0.00  0.00
  WS02006110WS02006113    1.00   0.01  0.01  0.00  0.98  0.00  0.00  0.00  0.00  0.00
  WS02006111WS02006112    1.00   0.02  0.00  0.00  0.98  0.00  0.00  0.00  0.98  0.00
  WS02006112WS02006115    1.00   0.02  0.00  0.00  0.97  0.00  0.00  0.00  0.00  0.00
  WS02006113WS02006111    1.00   0.02  0.00  0.00  0.00  0.98  0.00  0.00  0.14  0.00
  WS02006115WS02006116    1.00   0.02  0.00  0.00  0.97  0.00  0.00  0.01  0.00  0.00
  WS02006116WS02004401    1.00   0.02  0.00  0.00  0.98  0.00  0.00  0.00  0.00  0.00
  WS02006228WS02006109    1.00   0.00  0.00  0.00  1.00  0.00  0.00  0.00  0.01  0.00
  WS02006229WS02006228    1.00   0.00  0.00  0.00  0.99  0.00  0.00  0.01  0.00  0.00
  WS02006230WS02006229    1.00   0.00  0.00  0.00  0.99  0.00  0.00  0.01  0.03  0.00
  WS02006231WS02006230    1.00   0.00  0.00  0.00  0.25  0.00  0.75  0.00  0.00  0.00
  WS02006232WS02006231    1.00   0.00  0.00  0.00  0.99  0.00  0.01  0.00  0.00  0.00
  WS02006234WS02006232    1.00   0.00  0.00  0.00  1.00  0.00  0.00  0.00  0.02  0.00
  WS02006235WS02006234    1.00   0.00  0.00  0.00  0.94  0.00  0.06  0.00  0.00  0.00
  WS02006238WS02006235    1.00   0.00  0.00  0.00  1.00  0.00  0.00  0.00  0.01  0.00
  WS02006239WS02006238    1.00   0.00  0.00  0.00  1.00  0.00  0.00  0.00  0.07  0.00
  WS02006240WS02006239    1.00   0.00  0.00  0.00  0.91  0.00  0.00  0.09  0.23  0.00
  WS02006242WS02006240    1.00   0.00  0.00  0.00  0.94  0.00  0.06  0.00  0.00  0.00
  WS02006243WS02006242    1.00   0.00  0.00  0.00  0.98  0.00  0.00  0.02  0.58  0.00
  WS02006245WS02006243    1.00   0.00  0.00  0.00  0.70  0.00  0.00  0.30  0.02  0.00
  WS02006247WS02006245    1.00   0.00  0.00  0.00  0.97  0.00  0.00  0.02  0.00  0.00
  WS02006248WS02006247    1.00   0.00  0.00  0.00  0.98  0.00  0.00  0.02  0.34  0.00
  WS02006249WS02006248    1.00   0.00  0.00  0.00  0.43  0.00  0.57  0.00  0.00  0.00
  WS02006251WS02006249    1.00   0.00  0.00  0.00  0.99  0.01  0.00  0.00  0.59  0.00
  WS02006252WS02006251    1.00   0.00  0.49  0.00  0.17  0.00  0.34  0.00  0.00  0.00
  WS02006256WS02006235    1.00   0.00  0.00  0.00  0.96  0.04  0.00  0.00  0.01  0.00
  WSF200WS02003060        1.00   0.00  0.05  0.00  0.26  0.69  0.00  0.00  0.67  0.00
  YS02001580YS02001583    1.00   0.24  0.58  0.00  0.18  0.00  0.00  0.00  0.67  0.00
  YS02001583YS02001586    1.00   0.42  0.34  0.00  0.24  0.00  0.00  0.00  0.67  0.00
  YS02001586YS02001590    1.00   0.13  0.00  0.00  0.42  0.04  0.00  0.41  0.37  0.00
  YS02001590YS02001593    1.00   0.13  0.01  0.00  0.10  0.00  0.76  0.00  0.00  0.00
  YS02001593YS02001596    1.00   0.14  0.00  0.00  0.12  0.01  0.00  0.73  0.02  0.00
  YS02001596YS02001600    1.00   0.14  0.00  0.00  0.19  0.01  0.00  0.66  0.05  0.00
  YS02001600YS02001601    1.00   0.13  0.01  0.00  0.86  0.00  0.00  0.00  0.61  0.00
  YS02001601YS02001602    1.00   0.13  0.01  0.00  0.86  0.00  0.00  0.00  0.00  0.00
  YS02001602YS02001605    1.00   0.14  0.00  0.00  0.86  0.00  0.00  0.00  0.00  0.00
  YS02001605YS02001607    1.00   0.14  0.00  0.00  0.86  0.00  0.00  0.00  0.00  0.00
  YS02001607YS02001610    1.00   0.13  0.01  0.00  0.86  0.00  0.00  0.00  0.02  0.00
  YS02001610YS02001613    1.00   0.13  0.00  0.00  0.87  0.00  0.00  0.00  0.01  0.00
  YS02001613YS02001616    1.00   0.13  0.00  0.00  0.87  0.00  0.00  0.00  0.01  0.00
  YS02001616YS02001619    1.00   0.13  0.00  0.00  0.87  0.00  0.00  0.00  0.00  0.00
  YS02001619YS02001622    1.00   0.13  0.00  0.00  0.87  0.00  0.00  0.00  0.29  0.00
  YS02001622YS02001625    1.00   0.13  0.00  0.00  0.87  0.00  0.00  0.00  0.05  0.00
  YS02001625YS02001629    1.00   0.13  0.05  0.00  0.14  0.00  0.67  0.00  0.00  0.00
  YS02001629YS02163301    1.00   0.16  0.01  0.00  0.83  0.00  0.00  0.00  0.00  0.00
  YS02001633YS02163601    1.00   0.00  0.01  0.00  0.99  0.00  0.00  0.00  0.15  0.00
  YS02001641YS02001644    1.00   0.00  0.01  0.00  0.99  0.00  0.00  0.00  0.00  0.00
  YS02001644YS02001647    1.00   0.00  0.18  0.00  0.82  0.00  0.00  0.00  0.00  0.00
  YS02001647YS02001649    1.00   0.00  0.18  0.00  0.49  0.33  0.00  0.00  0.56  0.00
  YS02001649YS02001757    1.00   0.00  0.00  0.00  0.83  0.17  0.00  0.00  0.76  0.00
  YS02001652YS02001649    1.00   0.00  0.00  0.00  0.96  0.04  0.00  0.00  0.75  0.00
  YS02001655YS02001652    1.00   0.00  0.00  0.00  0.17  0.01  0.00  0.82  0.09  0.00
  YS02001658YS02001655    1.00   0.00  0.14  0.00  0.60  0.26  0.00  0.00  0.73  0.00
  YS02001661YS02001658    1.00   0.14  0.00  0.00  0.44  0.42  0.00  0.00  0.72  0.00
  YS02001664YS02001661    1.00   0.13  0.00  0.00  0.75  0.12  0.00  0.00  0.85  0.00
  YS02001745YS02001748    1.00   0.00  0.00  0.00  0.03  0.01  0.00  0.96  0.02  0.00
  YS02001748YS02001751    1.00   0.00  0.00  0.00  0.76  0.24  0.00  0.00  0.83  0.00
  YS02001751YS02001754    1.00   0.00  0.00  0.00  0.10  0.01  0.00  0.89  0.05  0.00
  YS02001754YS02001757    1.00   0.00  0.00  0.00  1.00  0.00  0.00  0.00  0.87  0.00
  YS02001757CaochengTiaoxuchi    1.00   0.00  0.00  0.00  0.04  0.96  0.00  0.00  0.09  0.00
  YS02001759YS02001757    1.00   0.00  0.00  0.00  1.00  0.00  0.00  0.00  0.66  0.00
  YS02001762YS02001759    1.00   0.00  0.00  0.00  1.00  0.00  0.00  0.00  0.06  0.00
  YS02001765YS02001762    1.00   0.00  0.00  0.00  1.00  0.00  0.00  0.00  0.74  0.00
  YS02001767YS02001765    1.00   0.00  0.00  0.00  1.00  0.00  0.00  0.00  0.01  0.00
  YS02001770YS02001767    1.00   0.00  0.00  0.00  1.00  0.00  0.00  0.00  0.00  0.00
  YS02001774YS02001770    1.00   0.00  0.14  0.00  0.70  0.00  0.16  0.00  0.03  0.00
  YS02001779YS02001774    1.00   0.00  0.00  0.00  1.00  0.00  0.00  0.00  0.80  0.00
  YS02001783YS02001784    1.00   0.00  0.19  0.00  0.81  0.00  0.00  0.00  0.55  0.00
  YS02001784YS02001785    1.00   0.00  0.00  0.00  1.00  0.00  0.00  0.00  0.18  0.00
  YS02001786YS02001788    1.00   0.00  0.00  0.00  0.80  0.20  0.00  0.00  0.00  0.00
  YS02001788YS02001790    1.00   0.00  0.00  0.00  0.22  0.78  0.00  0.00  0.82  0.00
  YS02001790YS02001791    1.00   0.00  0.00  0.00  0.01  0.99  0.00  0.00  0.15  0.00
  YS02001791YS02001793    1.00   0.00  0.00  0.00  0.00  1.00  0.00  0.00  0.01  0.00
  YS02001793JiankangQianchi    1.00   0.00  0.00  0.00  0.00  1.00  0.00  0.00  0.21  0.00
  YS02001882YS02001884    1.00   0.16  0.01  0.00  0.83  0.00  0.00  0.00  0.00  0.00
  YS02001884YS02001887    1.00   0.06  0.05  0.00  0.89  0.00  0.00  0.00  0.00  0.00
  YS02001887YS02001890    1.00   0.00  0.00  0.00  0.97  0.00  0.03  0.00  0.00  0.00
  YS02001890YS02001895    1.00   0.00  0.17  0.00  0.83  0.00  0.00  0.00  0.00  0.00
  YS02001895YS02001898    1.00   0.17  0.00  0.00  0.81  0.00  0.02  0.00  0.00  0.00
  YS02001898YS02001901    1.00   0.17  0.00  0.00  0.82  0.00  0.00  0.00  0.01  0.00
  YS02001901YS02001904    1.00   0.17  0.00  0.00  0.83  0.00  0.00  0.00  0.00  0.00
  YS02001904YS02001907    1.00   0.00  0.17  0.00  0.83  0.00  0.00  0.00  0.00  0.00
  YS02001907YS02006553    1.00   0.00  0.02  0.00  0.98  0.00  0.00  0.00  0.00  0.00
  YS02001910YS02001907    1.00   0.00  0.00  0.00  0.97  0.00  0.00  0.03  0.12  0.00
  YS02001915YS02001910    1.00   0.00  0.00  0.00  0.96  0.04  0.00  0.00  0.17  0.00
  YS02001918YS02001915    1.00   0.00  0.01  0.00  0.98  0.02  0.00  0.00  0.76  0.00
  YS02001920YS02001918    1.00   0.00  0.01  0.00  0.99  0.00  0.00  0.00  0.00  0.00
  YS02001923YS02001920    1.00   0.00  0.00  0.00  1.00  0.00  0.00  0.00  0.93  0.00
  YS02001926YS02001923    1.00   0.00  0.07  0.00  0.06  0.00  0.87  0.00  0.00  0.00
  YS02001929YS02001926    1.00   0.00  0.13  0.00  0.87  0.00  0.00  0.00  0.82  0.00
  YS02006553YS02006556    1.00   0.01  0.00  0.00  0.99  0.00  0.00  0.00  0.03  0.00
  YS02006556YS02006558    1.00   0.00  0.00  0.00  1.00  0.00  0.00  0.00  0.00  0.00
  YS02006558YS02006561    1.00   0.19  0.00  0.00  0.05  0.76  0.00  0.00  0.19  0.00
  YS02006561YS02001783    1.00   0.19  0.00  0.00  0.08  0.73  0.00  0.00  0.69  0.00
  YS02163301YS02001633    1.00   0.00  0.16  0.00  0.84  0.00  0.00  0.00  0.00  0.00
  YS02163601YS02164001    1.00   0.00  0.08  0.00  0.92  0.00  0.00  0.00  0.00  0.00
  YS02164001YS02001641    1.00   0.01  0.08  0.00  0.92  0.00  0.00  0.00  0.06  0.00
  
  
  *************************
  Conduit Surcharge Summary
  *************************
  
  ----------------------------------------------------------------------------
                                                           Hours        Hours 
                         --------- Hours Full --------   Above Full   Capacity
  Conduit                Both Ends  Upstream  Dnstream   Normal Flow   Limited
  ----------------------------------------------------------------------------
  WS02003072WS02003073        0.01      0.01      0.01      1.35         0.01
  WS02004404WS02004405        0.01      0.01      0.01      3.01         0.01
  WS02004405WS02004406        0.01      0.01      0.01      0.79         0.01
  WS02006109WS02006110        0.12      0.12      1.80      0.18         0.01
  WS02006110WS02006113        0.01      0.01      1.76      0.01         0.01
  WS02006111WS02006112        0.01      0.01      2.00      0.01         0.01
  WS02006112WS02006115        0.01      0.01      1.31      0.01         0.01
  WS02006228WS02006109        1.70      1.80      1.70      2.29         1.70
  WS02006229WS02006228        1.68      1.71      1.68      2.07         1.67
  WS02006230WS02006229        1.90      1.99      1.90      4.06         1.90
  WS02006231WS02006230        0.10      0.10      1.23      3.34         0.01
  WS02006232WS02006231        1.00      1.00      1.81      1.15         0.01
  WS02006234WS02006232        1.61      1.61      1.81      0.74         0.71
  WS02006235WS02006234        1.36      1.40      1.61      2.99         0.21
  WS02006238WS02006235        1.68      1.68      1.83      0.01         0.07
  WS02006239WS02006238        1.72      1.79      1.74      1.82         1.11
  WS02006240WS02006239        1.63      1.68      1.65      1.80         1.07
  WS02006242WS02006240        1.64      1.64      1.87      2.09         0.02
  WS02006243WS02006242        1.64      1.65      1.79      0.01         0.28
  WS02006245WS02006243        1.59      1.61      1.60      1.82         0.96
  WS02006247WS02006245        1.59      1.66      1.59      2.46         1.37
  WS02006248WS02006247        1.58      1.59      1.63      0.01         0.50
  WS02006249WS02006248        1.56      1.56      1.60      2.36         0.01
  WS02006251WS02006249        1.59      1.64      1.60      2.23         1.48
  WS02006252WS02006251        2.40      2.40      2.40      2.40         0.01
  WS02006256WS02006235        2.25      3.08      5.77      1.73         0.05
  YS02001580YS02001583        0.55      0.55      0.57      0.01         0.01
  YS02001583YS02001586        0.55      0.55      0.64      0.01         0.01
  YS02001586YS02001590        0.65      0.65      0.71      0.01         0.01
  YS02001590YS02001593        0.71      0.71      0.73      0.77         0.01
  YS02001593YS02001596        0.72      0.72      0.81      0.01         0.01
  YS02001596YS02001600        0.86      0.86      0.96      0.01         0.01
  YS02001600YS02001601        1.02      1.02      1.33      0.01         0.01
  YS02001601YS02001602        1.21      1.21      1.37      0.98         0.01
  YS02001602YS02001605        1.15      1.15      1.21      2.14         0.01
  YS02001605YS02001607        1.10      1.15      1.10      1.29         1.10
  YS02001607YS02001610        0.64      0.64      0.67      0.01         0.01
  YS02001610YS02001613        0.63      0.63      0.67      0.01         0.01
  YS02001613YS02001616        0.59      0.59      0.63      0.01         0.01
  YS02001616YS02001619        0.58      0.58      0.59      0.01         0.03
  YS02001619YS02001622        0.57      0.58      0.57      0.75         0.55
  YS02001622YS02001625        0.57      0.57      0.76      0.01         0.01
  YS02001625YS02001629        0.47      0.47      0.76      0.01         0.01
  YS02001629YS02163301        0.74      0.74      0.74      0.34         0.33
  YS02001633YS02163601        0.76      0.76      0.79      0.45         0.46
  YS02001641YS02001644        0.58      0.65      0.58      1.40         0.57
  YS02001644YS02001647        0.36      0.36      0.58      0.04         0.01
  YS02001647YS02001649        0.36      0.36      0.39      0.01         0.01
  YS02001649YS02001757        0.37      0.39      0.37      0.35         0.25
  YS02001652YS02001649        0.29      0.29      0.39      0.01         0.01
  YS02001655YS02001652        0.21      0.21      0.28      0.01         0.01
  YS02001658YS02001655        0.15      0.15      0.21      0.01         0.01
  YS02001661YS02001658        0.02      0.02      0.15      0.01         0.01
  YS02001664YS02001661        0.01      0.01      0.05      0.01         0.01
  YS02001745YS02001748        0.01      0.01      0.09      0.01         0.01
  YS02001748YS02001751        0.13      0.13      0.16      0.01         0.01
  YS02001751YS02001754        0.16      0.16      0.21      0.01         0.01
  YS02001754YS02001757        0.23      0.23      0.37      0.01         0.01
  YS02001757CaochengTiaoxuchi        0.01      0.37      0.01      0.46         0.01
  YS02001759YS02001757        0.32      0.32      0.37      0.01         0.02
  YS02001762YS02001759        0.31      0.31      0.32      0.01         0.03
  YS02001765YS02001762        0.29      0.29      0.31      0.01         0.01
  YS02001767YS02001765        0.28      0.28      0.29      0.01         0.04
  YS02001770YS02001767        0.28      0.28      0.28      0.53         0.27
  YS02001774YS02001770        0.27      0.27      0.31      0.01         0.01
  YS02001779YS02001774        0.23      0.23      0.31      0.01         0.01
  YS02001783YS02001784        0.47      0.49      0.47      0.63         0.47
  YS02001784YS02001785        0.38      0.47      0.38      0.83         0.38
  YS02001786YS02001788        0.01      0.38      0.01      0.72         0.01
  YS02001790YS02001791        0.01      0.01      0.01      0.46         0.01
  YS02001882YS02001884        0.44      0.44      0.45      0.01         0.01
  YS02001884YS02001887        0.48      0.48      0.49      0.01         0.01
  YS02001887YS02001890        0.50      0.50      0.51      0.11         0.01
  YS02001890YS02001895        0.44      0.44      0.52      0.01         0.01
  YS02001895YS02001898        0.43      0.43      0.44      0.01         0.01
  YS02001898YS02001901        0.44      0.44      0.47      0.01         0.01
  YS02001901YS02001904        0.46      0.46      0.47      0.01         0.01
  YS02001904YS02001907        0.46      0.46      0.70      0.01         0.01
  YS02001907YS02006553        0.84      0.84      0.90      0.01         0.01
  YS02001910YS02001907        0.52      0.52      0.68      0.01         0.01
  YS02001915YS02001910        0.44      0.44      0.52      0.01         0.01
  YS02001918YS02001915        0.36      0.36      0.44      0.01         0.01
  YS02001920YS02001918        0.36      0.36      0.38      0.01         0.01
  YS02001923YS02001920        0.32      0.32      0.38      0.01         0.01
  YS02001926YS02001923        0.06      0.06      0.11      0.01         0.01
  YS02001929YS02001926        0.01      0.01      0.11      0.01         0.01
  YS02006553YS02006556        0.60      0.60      0.69      0.01         0.01
  YS02006556YS02006558        0.65      0.65      0.71      0.01         0.01
  YS02006558YS02006561        0.40      0.59      0.40      0.79         0.40
  YS02006561YS02001783        0.33      0.33      0.49      0.01         0.01
  YS02163301YS02001633        0.74      0.74      0.78      0.01         0.02
  YS02163601YS02164001        0.67      0.67      0.79      0.28         0.01
  YS02164001YS02001641        0.65      0.67      0.65      0.69         0.50
  
  
  ***************
  Pumping Summary
  ***************
  
  ---------------------------------------------------------------------------------------------------------
                                                  Min       Avg       Max     Total     Power    % Time Off
                        Percent   Number of      Flow      Flow      Flow    Volume     Usage    Pump Curve
  Pump                 Utilized   Start-Ups       LPS       LPS       LPS  10^6 ltr     Kw-hr    Low   High
  ---------------------------------------------------------------------------------------------------------
  CC-R1                   22.52           6      0.00    683.00    683.00     4.384     70.82    0.0  100.0
  CC-R2                   22.52           6      0.00    683.00    683.00     4.384     70.82    0.0  100.0
  CC-S1                   30.33          17      0.00    200.00    200.00     1.729     14.34    0.0   51.0
  CC-S2                   30.33          17      0.00    200.00    200.00     1.729     14.34    0.0   51.0
  JK-R1                    4.78         365      0.00    998.73   1000.00     1.359      3.36    0.0    0.0
  JK-R2                    4.78         365      0.00    998.73   1000.00     1.359      3.36    0.0    0.0
  JK-S                    18.27         626      0.00    296.54    300.00     1.511     34.65    0.0    0.0
  

  Analysis begun on:  Thu Jan 16 14:23:02 2025
  Analysis ended on:  Thu Jan 16 14:23:04 2025
  Total elapsed time: 00:00:02