
  EPA STORM WATER MANAGEMENT MODEL - VERSION 5.2 (Build 5.2.4)
  PYSWMM TOOLKIT API - VERSION v1.0 (2023-11-27)
  ------------------------------------------------------------

  WARNING 04: minimum elevation drop used for Conduit WS02004404WS02004405
  WARNING 03: negative offset ignored for Link YS02001904YS02001907
  
  ****************
  Analysis Options
  ****************
  Flow Units ............... LPS
  Process Models:
    Rainfall/Runoff ........ YES
    RDII ................... NO
    Snowmelt ............... NO
    Groundwater ............ NO
    Flow Routing ........... YES
    Ponding Allowed ........ NO
    Water Quality .......... NO
  Infiltration Method ...... HORTON
  Flow Routing Method ...... DYNWAVE
  Surcharge Method ......... EXTRAN
  Starting Date ............ 08/28/2015 08:00:00
  Ending Date .............. 08/28/2015 16:00:00
  Antecedent Dry Days ...... 8.0
  Report Time Step ......... 00:01:00
  Wet Time Step ............ 00:01:00
  Dry Time Step ............ 00:01:00
  Routing Time Step ........ 30.00 sec
  Variable Time Step ....... YES
  Maximum Trials ........... 8
  Number of Threads ........ 4
  Head Tolerance ........... 0.001500 m
  
  
  **************************        Volume         Depth
  Runoff Quantity Continuity     hectare-m            mm
  **************************     ---------       -------
  Total Precipitation ......         7.050       212.540
  Evaporation Loss .........         0.000         0.000
  Infiltration Loss ........         0.112         3.367
  Surface Runoff ...........         6.906       208.212
  Final Storage ............         0.033         1.004
  Continuity Error (%) .....        -0.020
  
  
  **************************        Volume        Volume
  Flow Routing Continuity        hectare-m      10^6 ltr
  **************************     ---------     ---------
  Dry Weather Inflow .......         0.025         0.248
  Wet Weather Inflow .......         6.904        69.044
  Groundwater Inflow .......         0.000         0.000
  RDII Inflow ..............         0.000         0.000
  External Inflow ..........         0.083         0.825
  External Outflow .........         3.329        33.289
  Flooding Loss ............         3.938        39.379
  Evaporation Loss .........         0.000         0.000
  Exfiltration Loss ........         0.000         0.000
  Initial Stored Volume ....         0.243         2.431
  Final Stored Volume ......         0.039         0.394
  Continuity Error (%) .....        -0.708
  
  
  *************************
  Highest Continuity Errors
  *************************
  Node YS02001583 (-16.19%)
  Node WS02006256 (-12.12%)
  Node YS02001884 (5.27%)
  Node JK-storage (-2.57%)
  
  
  ***************************
  Time-Step Critical Elements
  ***************************
  Link YS02001793JiankangQianchi (50.33%)
  Link WS02006238WS02006235 (21.86%)
  Link WS02003066WSF200 (10.45%)
  Link WS02006235WS02006234 (3.65%)
  Link WS02004404WS02004405 (2.33%)
  
  
  ********************************
  Highest Flow Instability Indexes
  ********************************
  Link WS02006229WS02006228 (76)
  Link WS02006252WS02006251 (65)
  Link YS02001602YS02001605 (63)
  Link YS02001605YS02001607 (56)
  Link WS02006228WS02006109 (53)
  
  
  *********************************
  Most Frequent Nonconverging Nodes
  *********************************
  Node CC-1 (66.51%)
  Node CC-2 (66.51%)
  Node JK-1 (66.51%)
  Node JK-2 (66.51%)
  Node WSC (66.51%)
  
  
  *************************
  Routing Time Step Summary
  *************************
  Minimum Time Step           :     0.00 sec
  Average Time Step           :     2.12 sec
  Maximum Time Step           :     6.43 sec
  % of Time in Steady State   :     0.00
  Average Iterations per Step :     6.34
  % of Steps Not Converging   :    66.51
  Time Step Frequencies       :
     30.000 - 13.228 sec      :     0.00 %
     13.228 -  5.833 sec      :     1.92 %
      5.833 -  2.572 sec      :    30.69 %
      2.572 -  1.134 sec      :    42.37 %
      1.134 -  0.500 sec      :    25.02 %
  
  
  ***************************
  Subcatchment Runoff Summary
  ***************************
  
  ------------------------------------------------------------------------------------------------------------------------------
                            Total      Total      Total      Total     Imperv       Perv      Total       Total     Peak  Runoff
                           Precip      Runon       Evap      Infil     Runoff     Runoff     Runoff      Runoff   Runoff   Coeff
  Subcatchment                 mm         mm         mm         mm         mm         mm         mm    10^6 ltr      LPS
  ------------------------------------------------------------------------------------------------------------------------------
  sub60                    212.54       0.00       0.00       1.98     185.87      23.53     209.40        2.75   550.98   0.985
  sub61                    212.54       0.00       0.00       2.89     175.31      33.25     208.57        3.83   767.14   0.981
  sub62                    212.54       0.00       0.00       1.32     194.28      15.69     209.96        5.75  1147.14   0.988
  sub63                    212.54       0.00       0.00       5.38     149.96      56.26     206.22        4.68   926.99   0.970
  sub64                    212.54       0.00       0.00       2.72     179.47      29.17     208.64        5.01   993.58   0.982
  sub65                    212.54       0.00       0.00       2.35     183.67      25.28     208.95        5.75  1137.30   0.983
  sub66                    212.54       0.00       0.00       6.70     149.83      54.94     204.77        9.55  1725.90   0.963
  sub67                    212.54       0.00       0.00       1.25     194.34      15.76     210.10        3.91   782.45   0.989
  sub68                    212.54       0.00       0.00       2.39     181.63      27.37     208.99        5.75  1150.13   0.983
  sub69                    212.54       0.00       0.00       2.22     180.56      29.67     210.23        7.78  1525.91   0.989
  sub70                    212.54       0.00       0.00       7.39     140.11      64.87     204.98        5.92  1008.36   0.964
  sub71                    212.54       0.00       0.00       1.36     194.22      15.64     209.87        5.49  1086.10   0.987
  sub72                    212.54       0.00       0.00       1.22     196.26      13.66     209.92        2.89   563.38   0.988
  
  
  ******************
  Node Depth Summary
  ******************
  
  ---------------------------------------------------------------------------------
                                 Average  Maximum  Maximum  Time of Max    Reported
                                   Depth    Depth      HGL   Occurrence   Max Depth
  Node                 Type       Meters   Meters   Meters  days hr:min      Meters
  ---------------------------------------------------------------------------------
  WS02003060           JUNCTION     0.28     0.38     5.31     0  03:25        0.38
  WS02003066           JUNCTION     0.22     0.29     5.85     0  03:26        0.29
  WS02003067           JUNCTION     0.55     0.70     6.02     0  03:24        0.70
  WS02003069           JUNCTION     0.31     0.42     5.01     0  03:26        0.42
  WS02003072           JUNCTION     0.37     0.49     4.87     0  03:26        0.49
  WS02003073           JUNCTION     0.22     0.29     4.36     0  03:28        0.29
  WS02004401           JUNCTION     0.67     0.84     6.84     0  03:21        0.84
  WS02004402           JUNCTION     0.70     0.87     6.83     0  03:22        0.87
  WS02004403           JUNCTION     0.71     0.89     6.82     0  03:22        0.89
  WS02004404           JUNCTION     0.79     0.96     6.81     0  03:22        0.96
  WS02004405           JUNCTION     0.78     0.95     6.80     0  03:22        0.95
  WS02004406           JUNCTION     0.79     0.95     6.78     0  03:22        0.95
  WS02004407           JUNCTION     0.21     0.29     6.61     0  03:22        0.29
  WS02004409           JUNCTION     0.48     0.66     6.43     0  03:24        0.66
  WS02004410           JUNCTION     0.50     0.67     6.39     0  03:25        0.67
  WS02004411           JUNCTION     0.51     0.68     6.36     0  03:25        0.68
  WS02004412           JUNCTION     0.53     0.69     6.33     0  03:25        0.69
  WS02004413           JUNCTION     0.68     0.85     6.32     0  03:26        0.85
  WS02006109           JUNCTION     0.76     1.04     7.65     0  03:19        0.97
  WS02006110           JUNCTION     0.75     0.99     7.58     0  03:19        0.93
  WS02006111           JUNCTION     0.21     0.29     6.99     0  03:21        0.28
  WS02006112           JUNCTION     0.84     1.06     6.94     0  03:19        1.04
  WS02006113           JUNCTION     0.34     0.46     7.35     0  03:21        0.46
  WS02006115           JUNCTION     0.56     0.74     6.88     0  03:21        0.74
  WS02006116           JUNCTION     0.64     0.82     6.86     0  03:22        0.82
  WS02006228           JUNCTION     0.77     1.07     7.72     0  03:18        1.01
  WS02006229           JUNCTION     0.76     1.08     7.78     0  03:18        1.00
  WS02006230           JUNCTION     0.79     1.21     7.96     0  03:18        1.10
  WS02006231           JUNCTION     0.57     1.33     8.45     0  03:23        1.25
  WS02006232           JUNCTION     0.73     2.18     9.22     0  02:52        2.18
  WS02006234           JUNCTION     0.69     1.96     9.12     0  02:52        1.96
  WS02006235           JUNCTION     0.74     2.00     9.16     0  02:51        2.00
  WS02006238           JUNCTION     0.78     2.15     9.29     0  02:51        2.15
  WS02006239           JUNCTION     0.76     2.03     9.24     0  02:43        2.03
  WS02006240           JUNCTION     0.73     2.10     9.39     0  02:52        2.10
  WS02006242           JUNCTION     0.81     1.55     8.82     0  01:22        1.55
  WS02006243           JUNCTION     0.73     1.48     8.90     0  01:22        1.48
  WS02006245           JUNCTION     0.74     1.56     9.04     0  01:22        1.56
  WS02006247           JUNCTION     0.76     1.47     8.97     0  01:22        1.47
  WS02006248           JUNCTION     0.73     1.10     8.69     0  01:13        1.10
  WS02006249           JUNCTION     0.75     1.09     8.69     0  01:13        1.09
  WS02006251           JUNCTION     0.76     1.43     9.10     0  01:13        1.13
  WS02006252           JUNCTION     0.47     1.50     9.74     0  00:00        1.50
  WS02006256           JUNCTION     1.34     2.35     9.28     0  00:00        2.35
  WSF200               JUNCTION     0.20     0.29     5.52     0  03:26        0.29
  YS02001580           JUNCTION     0.38     1.05     9.59     0  01:06        0.77
  YS02001583           JUNCTION     0.42     1.14     9.64     0  01:06        1.14
  YS02001586           JUNCTION     0.60     1.13     9.30     0  01:05        1.13
  YS02001590           JUNCTION     0.74     1.40     9.26     0  01:05        1.40
  YS02001593           JUNCTION     0.67     1.46     9.32     0  02:52        1.29
  YS02001596           JUNCTION     0.87     1.80     9.22     0  02:52        1.80
  YS02001600           JUNCTION     1.00     1.87     9.00     0  01:05        1.86
  YS02001601           JUNCTION     1.18     2.06     8.90     0  01:05        2.06
  YS02001602           JUNCTION     1.06     1.87     8.77     0  01:07        1.87
  YS02001605           JUNCTION     1.00     1.78     8.68     0  01:07        1.78
  YS02001607           JUNCTION     0.94     1.68     8.53     0  01:07        1.67
  YS02001610           JUNCTION     0.98     1.68     8.48     0  01:07        1.68
  YS02001613           JUNCTION     0.95     1.70     8.54     0  01:07        1.67
  YS02001616           JUNCTION     0.89     1.61     8.52     0  01:07        1.61
  YS02001619           JUNCTION     0.87     1.61     8.54     0  01:07        1.61
  YS02001622           JUNCTION     0.86     1.62     8.52     0  01:07        1.60
  YS02001625           JUNCTION     1.09     1.78     8.38     0  01:07        1.78
  YS02001629           JUNCTION     1.05     1.85     8.40     0  01:07        1.85
  YS02001633           JUNCTION     1.14     2.08     8.53     0  02:52        2.08
  YS02001641           JUNCTION     1.13     2.10     8.54     0  02:52        1.95
  YS02001644           JUNCTION     1.12     1.92     8.35     0  01:07        1.92
  YS02001647           JUNCTION     0.94     1.85     8.46     0  02:53        1.85
  YS02001649           JUNCTION     1.06     2.05     8.44     0  01:09        2.05
  YS02001652           JUNCTION     0.93     2.16     8.76     0  01:08        1.97
  YS02001655           JUNCTION     0.79     2.20     9.05     0  01:08        1.75
  YS02001658           JUNCTION     0.63     2.20     9.34     0  01:09        1.62
  YS02001661           JUNCTION     0.52     2.02     9.43     0  01:09        1.50
  YS02001664           JUNCTION     0.20     0.93     8.85     0  01:10        0.93
  YS02001745           JUNCTION     0.36     2.10     9.62     0  01:09        0.80
  YS02001748           JUNCTION     0.61     2.27     9.35     0  01:09        1.23
  YS02001751           JUNCTION     0.72     2.20     9.08     0  01:09        2.20
  YS02001754           JUNCTION     0.87     2.20     8.81     0  01:08        1.73
  YS02001757           JUNCTION     1.10     2.21     8.47     0  01:09        2.13
  YS02001759           JUNCTION     1.05     2.19     8.56     0  01:09        2.04
  YS02001762           JUNCTION     1.04     2.15     8.55     0  01:08        2.00
  YS02001765           JUNCTION     1.01     2.10     8.55     0  01:09        2.02
  YS02001767           JUNCTION     1.00     2.03     8.52     0  01:08        2.03
  YS02001770           JUNCTION     1.02     1.95     8.44     0  01:08        1.95
  YS02001774           JUNCTION     1.08     2.05     8.47     0  02:52        2.05
  YS02001779           JUNCTION     0.88     1.68     8.37     0  01:08        1.68
  YS02001783           JUNCTION     0.63     2.40     8.54     0  02:52        2.40
  YS02001784           JUNCTION     0.59     1.81     7.88     0  02:52        1.15
  YS02001786           JUNCTION     0.47     1.16     7.19     0  01:07        0.90
  YS02001788           JUNCTION     0.34     0.63     6.60     0  01:08        0.62
  YS02001790           JUNCTION     0.38     0.72     6.37     0  01:45        0.72
  YS02001791           JUNCTION     0.23     0.44     5.91     0  01:38        0.44
  YS02001793           JUNCTION     0.13     0.26     5.09     0  01:56        0.25
  YS02001882           JUNCTION     0.83     1.83     8.55     0  01:07        1.64
  YS02001884           JUNCTION     0.92     1.93     8.55     0  01:07        1.74
  YS02001887           JUNCTION     1.00     1.96     8.50     0  01:07        1.82
  YS02001890           JUNCTION     1.02     1.81     8.32     0  01:07        1.81
  YS02001895           JUNCTION     0.79     1.75     8.50     0  01:07        1.75
  YS02001898           JUNCTION     0.80     1.77     8.51     0  01:07        1.57
  YS02001901           JUNCTION     0.90     1.87     8.48     0  01:07        1.87
  YS02001904           JUNCTION     0.88     1.76     8.39     0  01:07        1.65
  YS02001907           JUNCTION     1.19     1.96     8.25     0  01:07        1.96
  YS02001910           JUNCTION     1.03     2.07     8.58     0  02:52        1.93
  YS02001915           JUNCTION     0.88     2.00     8.72     0  01:07        2.00
  YS02001918           JUNCTION     0.67     1.81     8.88     0  01:07        1.55
  YS02001920           JUNCTION     0.74     2.14     9.15     0  01:07        2.14
  YS02001923           JUNCTION     0.57     2.03     9.29     0  01:08        1.38
  YS02001926           JUNCTION     0.51     1.90     9.35     0  01:08        1.21
  YS02001929           JUNCTION     0.37     1.78     9.47     0  01:08        1.00
  YS02006553           JUNCTION     1.19     2.06     8.35     0  02:52        1.99
  YS02006556           JUNCTION     1.16     2.10     8.41     0  02:52        1.95
  YS02006558           JUNCTION     1.20     2.18     8.45     0  02:52        2.18
  YS02006561           JUNCTION     0.45     1.16     7.82     0  02:52        0.92
  YS02163301           JUNCTION     1.08     2.01     8.53     0  02:52        1.95
  YS02163601           JUNCTION     1.18     2.08     8.48     0  01:07        2.01
  YS02164001           JUNCTION     1.12     2.10     8.56     0  02:52        1.94
  CC-1                 OUTFALL      0.00     0.00     0.00     0  00:00        0.00
  CC-2                 OUTFALL      0.00     0.00     0.00     0  00:00        0.00
  JK-1                 OUTFALL      0.00     0.00     0.00     0  00:00        0.00
  JK-2                 OUTFALL      0.00     0.00     0.00     0  00:00        0.00
  WSC                  OUTFALL      0.21     0.29     0.96     0  03:28        0.29
  CC-storage           STORAGE      1.02     2.27     7.77     0  03:02        2.27
  JK-storage           STORAGE      0.03     2.99     3.79     0  00:00        0.68
  
  
  *******************
  Node Inflow Summary
  *******************
  
  -------------------------------------------------------------------------------------------------
                                  Maximum  Maximum                  Lateral       Total        Flow
                                  Lateral    Total  Time of Max      Inflow      Inflow     Balance
                                   Inflow   Inflow   Occurrence      Volume      Volume       Error
  Node                 Type           LPS      LPS  days hr:min    10^6 ltr    10^6 ltr     Percent
  -------------------------------------------------------------------------------------------------
  WS02003060           JUNCTION     16.53   541.67     0  03:26       0.471        7.36       0.034
  WS02003066           JUNCTION      0.00   524.71     0  03:26           0        6.89       0.023
  WS02003067           JUNCTION      0.00   524.69     0  03:26           0        6.89       0.063
  WS02003069           JUNCTION      0.32   541.89     0  03:25     0.00912        7.36       0.064
  WS02003072           JUNCTION      0.00   541.49     0  03:26           0        7.36       0.113
  WS02003073           JUNCTION      1.82   543.33     0  03:27      0.0519         7.4       0.090
  WS02004401           JUNCTION      0.00   533.36     0  03:21           0           7       0.155
  WS02004402           JUNCTION      0.00   532.77     0  03:22           0        6.99       0.155
  WS02004403           JUNCTION      0.00   530.98     0  03:21           0        6.98       0.151
  WS02004404           JUNCTION      0.16   531.02     0  03:22     0.00462        6.97       0.129
  WS02004405           JUNCTION      0.04   531.08     0  03:22     0.00109        6.96       0.180
  WS02004406           JUNCTION      0.00   530.79     0  03:22           0        6.95       0.310
  WS02004407           JUNCTION      0.00   530.37     0  03:22           0        6.93       0.019
  WS02004409           JUNCTION      0.00   529.90     0  03:23           0        6.93       0.046
  WS02004410           JUNCTION      0.00   528.26     0  03:23           0        6.93       0.074
  WS02004411           JUNCTION      0.00   526.72     0  03:23           0        6.92       0.090
  WS02004412           JUNCTION      0.00   525.57     0  03:24           0        6.91       0.117
  WS02004413           JUNCTION      0.00   525.14     0  03:25           0        6.91       0.213
  WS02006109           JUNCTION      1.23   545.43     0  03:19      0.0351        7.05       0.132
  WS02006110           JUNCTION      0.00   545.00     0  03:19           0        7.04       0.102
  WS02006111           JUNCTION      0.00   559.30     0  03:21           0        7.03       0.020
  WS02006112           JUNCTION      0.00   541.11     0  03:21           0        7.03       0.299
  WS02006113           JUNCTION      0.00   555.76     0  03:19           0        7.03       0.026
  WS02006115           JUNCTION      0.00   548.97     0  03:19           0        7.01       0.109
  WS02006116           JUNCTION      0.00   534.62     0  03:21           0           7       0.012
  WS02006228           JUNCTION      0.00   544.51     0  03:19           0        7.02       0.049
  WS02006229           JUNCTION      0.00   544.61     0  03:19           0        7.02       0.092
  WS02006230           JUNCTION     10.28   574.26     0  03:25       0.293        7.03       0.077
  WS02006231           JUNCTION      0.00   560.27     0  03:22           0        6.73      -0.020
  WS02006232           JUNCTION      0.00   557.18     0  03:22           0        6.75       0.168
  WS02006234           JUNCTION      0.00   556.48     0  03:28           0        6.73      -0.220
  WS02006235           JUNCTION      0.00   560.39     0  03:28           0        6.87      -0.003
  WS02006238           JUNCTION      0.00   426.48     0  03:35           0        5.47       0.052
  WS02006239           JUNCTION      0.00   420.83     0  03:33           0        5.35      -0.098
  WS02006240           JUNCTION      0.00   420.63     0  03:35           0         5.3      -0.139
  WS02006242           JUNCTION      0.00   422.62     0  03:34           0         5.3      -0.021
  WS02006243           JUNCTION      0.00   422.97     0  03:34           0        5.31       0.148
  WS02006245           JUNCTION      0.00   423.33     0  03:35           0        5.33       0.437
  WS02006247           JUNCTION      0.00   424.03     0  03:35           0        5.33       0.021
  WS02006248           JUNCTION      0.00   423.13     0  03:35           0        5.35       0.153
  WS02006249           JUNCTION      0.00   473.75     0  04:43           0        5.61       0.369
  WS02006251           JUNCTION      0.08   403.22     0  03:35     0.00219        5.61      -0.022
  WS02006252           JUNCTION      0.00   400.00     0  00:00           0         5.6      -0.054
  WS02006256           JUNCTION      0.00   331.83     0  03:31           0        2.11     -10.811
  WSF200               JUNCTION      0.00   524.78     0  03:26           0        6.89       0.008
  YS02001580           JUNCTION      0.00   302.55     0  01:06           0     0.00476       0.011
  YS02001583           JUNCTION      0.00   305.10     0  01:05           0       0.015     -13.935
  YS02001586           JUNCTION   1008.36  1008.48     0  01:28        5.92        5.93       0.035
  YS02001590           JUNCTION      0.00   338.06     0  02:52           0        2.76      -0.018
  YS02001593           JUNCTION      0.00   346.72     0  02:52           0        2.77       0.021
  YS02001596           JUNCTION      0.00   324.35     0  02:52           0        2.77      -0.034
  YS02001600           JUNCTION      0.00   322.94     0  02:52           0        2.78       0.036
  YS02001601           JUNCTION   1525.91  1843.47     0  01:26        7.78        10.6       0.012
  YS02001602           JUNCTION      0.00   620.44     0  01:06           0        3.69       0.022
  YS02001605           JUNCTION      0.00   620.27     0  01:06           0        3.23       0.035
  YS02001607           JUNCTION      0.00   619.73     0  01:06           0        3.23       0.030
  YS02001610           JUNCTION      0.00   949.97     0  01:29           0        5.63       0.045
  YS02001613           JUNCTION      0.00   614.60     0  01:06           0        3.28       0.030
  YS02001616           JUNCTION      0.00   646.02     0  01:07           0        3.29      -0.026
  YS02001619           JUNCTION   1725.90  1725.90     0  01:28        9.55        10.4      -0.005
  YS02001622           JUNCTION      0.00  1053.67     0  01:29           0        7.98      -0.010
  YS02001625           JUNCTION      0.00  1505.30     0  01:27           0        9.93       0.065
  YS02001629           JUNCTION      0.00   731.11     0  01:06           0        3.65       0.064
  YS02001633           JUNCTION   1137.50  1245.89     0  01:07        5.76        7.34       0.044
  YS02001641           JUNCTION      0.00  1240.39     0  01:07           0        5.28       0.044
  YS02001644           JUNCTION    993.62  1859.06     0  01:08        5.01        10.3       0.028
  YS02001647           JUNCTION      0.00  1858.40     0  01:08           0        6.37       0.011
  YS02001649           JUNCTION      0.00  2111.60     0  01:08           0        11.1       0.007
  YS02001652           JUNCTION      0.00   949.61     0  01:10           0         4.7      -0.115
  YS02001655           JUNCTION      0.15   949.61     0  01:10     0.00439         4.7       0.071
  YS02001658           JUNCTION      0.00   949.68     0  01:10           0        4.69       0.001
  YS02001661           JUNCTION      0.00   948.60     0  01:10           0        4.68      -0.298
  YS02001664           JUNCTION    926.99   926.99     0  01:26        4.68        4.68       0.011
  YS02001745           JUNCTION    550.98   724.59     0  01:09        2.75        2.75       0.072
  YS02001748           JUNCTION      0.04   697.91     0  01:09     0.00128        2.75      -0.165
  YS02001751           JUNCTION      0.01   766.75     0  01:08    0.000313        2.76       0.097
  YS02001754           JUNCTION      0.26   726.99     0  01:08     0.00741        2.78      -0.131
  YS02001757           JUNCTION      0.00  3544.54     0  01:26           0        21.8       0.021
  YS02001759           JUNCTION    767.18  1418.28     0  01:24        3.83        8.01      -0.006
  YS02001762           JUNCTION      0.00   740.38     0  01:35           0        4.18       0.005
  YS02001765           JUNCTION      0.00   740.07     0  01:35           0        4.18       0.004
  YS02001767           JUNCTION      0.54   739.58     0  01:35      0.0152        4.17      -0.004
  YS02001770           JUNCTION   1147.29  1147.29     0  01:25        5.76        5.79      -0.013
  YS02001774           JUNCTION      0.00   655.21     0  01:08           0        1.65       0.090
  YS02001779           JUNCTION      0.01   660.94     0  01:08    0.000142        1.61      -0.061
  YS02001783           JUNCTION      0.00  1162.17     0  01:09           0        9.09       0.004
  YS02001784           JUNCTION      1.06  1163.26     0  01:10      0.0302        9.12       0.007
  YS02001786           JUNCTION      0.06  1163.23     0  01:09      0.0016        9.12       0.007
  YS02001788           JUNCTION      0.07  1163.38     0  01:10     0.00202        9.12       0.003
  YS02001790           JUNCTION      0.15  1183.27     0  01:08     0.00442        9.12      -0.013
  YS02001791           JUNCTION      0.00  1292.03     0  01:21           0        9.12      -0.005
  YS02001793           JUNCTION      0.00  1252.33     0  01:40           0        9.12       0.007
  YS02001882           JUNCTION      0.00   127.01     0  01:07           0      0.0134       4.852
  YS02001884           JUNCTION      0.00   240.05     0  01:06           0      0.0493       5.566
  YS02001887           JUNCTION    782.90   783.38     0  01:24        3.92        3.95       0.108
  YS02001890           JUNCTION      0.00   783.51     0  01:24           0        3.91       0.132
  YS02001895           JUNCTION      0.00   612.73     0  01:07           0        3.42       0.112
  YS02001898           JUNCTION      0.00   612.01     0  01:07           0        3.42      -0.048
  YS02001901           JUNCTION      0.00   611.69     0  01:07           0        3.43       0.106
  YS02001904           JUNCTION      0.00   611.35     0  01:07           0        3.46       0.084
  YS02001907           JUNCTION      0.00  2169.31     0  01:26           0        11.9       0.154
  YS02001910           JUNCTION      0.00  1652.81     0  01:25           0        8.46       0.087
  YS02001915           JUNCTION   1086.12  1652.55     0  01:26        5.49        8.52       0.013
  YS02001918           JUNCTION      0.00   962.90     0  01:07           0        3.07       0.025
  YS02001920           JUNCTION      2.87   918.03     0  01:07      0.0818        3.03      -0.001
  YS02001923           JUNCTION      0.04  1092.29     0  01:07     0.00107        2.93      -0.037
  YS02001926           JUNCTION      0.05  1439.56     0  01:08     0.00149        2.91      -0.016
  YS02001929           JUNCTION    563.38   963.69     0  01:08        2.89        2.89      -0.062
  YS02006553           JUNCTION      0.00   811.04     0  03:03           0        3.42       0.361
  YS02006556           JUNCTION      0.00   810.97     0  03:03           0        3.44       0.244
  YS02006558           JUNCTION   1151.01  1202.68     0  01:07        5.77        9.16       0.037
  YS02006561           JUNCTION      0.00  1206.89     0  01:07           0        9.09       0.000
  YS02163301           JUNCTION      0.00   707.41     0  03:10           0        3.66       0.057
  YS02163601           JUNCTION      0.11  1245.16     0  01:07     0.00313        5.25       0.096
  YS02164001           JUNCTION      0.00  1241.83     0  01:07           0        5.26       0.053
  CC-1                 OUTFALL       0.00   683.00     0  00:00           0        9.23       0.000
  CC-2                 OUTFALL       0.00   683.00     0  00:00           0        9.23       0.000
  JK-1                 OUTFALL       0.00  1000.00     0  00:00           0        3.71       0.000
  JK-2                 OUTFALL       0.00  1000.00     0  00:00           0        3.71       0.000
  WSC                  OUTFALL       0.00   543.27     0  03:28           0         7.4       0.000
  CC-storage           STORAGE       0.00  3543.94     0  01:26           0        24.1      -0.230
  JK-storage           STORAGE       0.00  1300.71     0  01:56           0        9.27      -2.508
  
  
  **********************
  Node Surcharge Summary
  **********************
  
  Surcharging occurs when water rises above the top of the highest conduit.
  ---------------------------------------------------------------------
                                               Max. Height   Min. Depth
                                   Hours       Above Crown    Below Rim
  Node                 Type      Surcharged         Meters       Meters
  ---------------------------------------------------------------------
  WS02006109           JUNCTION        3.42          0.216        1.604
  WS02006110           JUNCTION        0.05          0.084        1.766
  WS02006112           JUNCTION        2.12          0.056        1.624
  WS02006228           JUNCTION        3.41          0.243        1.957
  WS02006229           JUNCTION        3.44          0.284        2.166
  WS02006230           JUNCTION        0.04          0.131        1.439
  WS02006231           JUNCTION        1.99          0.621        0.909
  WS02006232           JUNCTION        3.51          1.480        0.000
  WS02006234           JUNCTION        2.76          1.240        0.000
  WS02006235           JUNCTION        3.40          1.290        0.000
  WS02006238           JUNCTION        3.48          1.430        0.000
  WS02006239           JUNCTION        3.44          1.290        0.000
  WS02006240           JUNCTION        3.44          1.390        0.000
  WS02006242           JUNCTION        3.54          0.820        0.000
  WS02006243           JUNCTION        3.45          0.770        0.000
  WS02006245           JUNCTION        3.45          0.850        0.000
  WS02006247           JUNCTION        3.47          0.760        0.000
  WS02006248           JUNCTION        3.44          0.380        0.000
  WS02006249           JUNCTION        3.46          0.390        0.000
  WS02006251           JUNCTION        2.36          0.397        0.783
  WS02006252           JUNCTION        3.89          1.100        0.000
  WS02006256           JUNCTION        7.27          2.050        0.000
  YS02001580           JUNCTION        2.07          0.450        0.000
  YS02001583           JUNCTION        2.08          0.500        0.000
  YS02001586           JUNCTION        2.16          0.510        0.000
  YS02001590           JUNCTION        2.21          0.750        0.000
  YS02001593           JUNCTION        2.21          0.840        0.000
  YS02001596           JUNCTION        2.27          1.070        0.000
  YS02001600           JUNCTION        2.35          1.190        0.000
  YS02001601           JUNCTION        2.53          1.440        0.000
  YS02001602           JUNCTION        2.49          1.270        0.000
  YS02001605           JUNCTION        2.47          1.180        0.000
  YS02001607           JUNCTION        2.23          0.680        0.000
  YS02001610           JUNCTION        2.24          0.680        0.000
  YS02001613           JUNCTION        2.23          0.700        0.000
  YS02001616           JUNCTION        2.20          0.610        0.000
  YS02001619           JUNCTION        2.19          0.610        0.000
  YS02001622           JUNCTION        2.19          0.620        0.000
  YS02001625           JUNCTION        2.33          0.780        0.000
  YS02001629           JUNCTION        2.17          0.470        0.000
  YS02001633           JUNCTION        2.38          1.060        0.000
  YS02001641           JUNCTION        2.39          1.100        0.000
  YS02001644           JUNCTION        2.38          0.920        0.000
  YS02001647           JUNCTION        2.26          0.855        0.045
  YS02001649           JUNCTION        2.38          1.050        0.000
  YS02001652           JUNCTION        2.23          1.130        0.000
  YS02001655           JUNCTION        2.10          1.200        0.000
  YS02001658           JUNCTION        1.91          1.200        0.100
  YS02001661           JUNCTION        0.18          0.952        0.438
  YS02001745           JUNCTION        0.01          1.103        0.247
  YS02001748           JUNCTION        1.88          1.190        0.000
  YS02001751           JUNCTION        2.06          1.200        0.000
  YS02001754           JUNCTION        2.19          1.150        0.000
  YS02001757           JUNCTION        2.46          1.210        0.000
  YS02001759           JUNCTION        2.39          1.193        0.017
  YS02001762           JUNCTION        2.36          1.150        0.000
  YS02001765           JUNCTION        2.32          1.100        0.000
  YS02001767           JUNCTION        2.30          1.030        0.000
  YS02001770           JUNCTION        2.27          0.920        0.000
  YS02001774           JUNCTION        2.34          1.050        0.000
  YS02001779           JUNCTION        2.17          0.680        0.000
  YS02001783           JUNCTION        2.01          1.600        0.000
  YS02001784           JUNCTION        1.99          1.008        0.482
  YS02001786           JUNCTION        1.94          0.364        1.066
  YS02001882           JUNCTION        1.98          0.830        0.000
  YS02001884           JUNCTION        1.99          0.870        0.000
  YS02001887           JUNCTION        2.01          0.913        0.037
  YS02001890           JUNCTION        2.01          0.760        0.000
  YS02001895           JUNCTION        1.97          0.750        0.000
  YS02001898           JUNCTION        1.97          0.740        0.000
  YS02001901           JUNCTION        2.00          0.870        0.000
  YS02001904           JUNCTION        1.99          0.760        0.090
  YS02001907           JUNCTION        2.09          0.950        0.000
  YS02001910           JUNCTION        2.02          1.072        0.028
  YS02001915           JUNCTION        1.98          1.000        0.000
  YS02001918           JUNCTION        1.93          0.810        0.000
  YS02001920           JUNCTION        1.94          1.140        0.000
  YS02001923           JUNCTION        0.67          0.820        0.000
  YS02001926           JUNCTION        0.76          0.900        0.000
  YS02001929           JUNCTION        0.01          0.780        0.000
  YS02006553           JUNCTION        2.10          1.065        0.125
  YS02006556           JUNCTION        2.06          1.061        0.289
  YS02006558           JUNCTION        2.05          1.079        0.321
  YS02006561           JUNCTION        1.91          0.356        0.794
  YS02163301           JUNCTION        2.36          1.015        0.015
  YS02163601           JUNCTION        2.42          1.080        0.000
  YS02164001           JUNCTION        2.37          1.100        0.000
  
  
  *********************
  Node Flooding Summary
  *********************
  
  Flooding refers to all water that overflows a node, whether it ponds or not.
  --------------------------------------------------------------------------
                                                             Total   Maximum
                                 Maximum   Time of Max       Flood    Ponded
                        Hours       Rate    Occurrence      Volume     Depth
  Node                 Flooded       LPS   days hr:min    10^6 ltr    Meters
  --------------------------------------------------------------------------
  WS02006232              0.01      0.52      0  02:52       0.000     0.000
  WS02006234              0.01     14.72      0  03:00       0.000     0.000
  WS02006235              0.01     10.65      0  02:59       0.000     0.000
  WS02006238              0.01      6.20      0  02:59       0.000     0.000
  WS02006239              0.01      4.81      0  03:16       0.000     0.000
  WS02006240              0.01     11.62      0  03:00       0.000     0.000
  WS02006242              0.01     12.97      0  02:43       0.000     0.000
  WS02006243              0.01      4.71      0  03:30       0.000     0.000
  WS02006245              0.01      2.42      0  03:16       0.000     0.000
  WS02006247              0.01      1.70      0  01:49       0.000     0.000
  WS02006248              0.59     34.01      0  02:51       0.010     0.000
  WS02006249              2.24     76.79      0  03:22       0.237     0.000
  WS02006252              0.01    249.23      0  04:43       0.000     0.000
  WS02006256              1.93    308.25      0  03:31       0.922     0.000
  YS02001580              0.01    231.64      0  01:06       0.001     0.000
  YS02001583              0.01    228.83      0  01:06       0.001     0.000
  YS02001586              2.01    691.06      0  01:28       3.157     0.000
  YS02001590              0.01     12.32      0  01:05       0.000     0.000
  YS02001593              0.01     16.75      0  02:52       0.000     0.000
  YS02001596              0.01     17.01      0  02:52       0.000     0.000
  YS02001600              0.01     47.91      0  02:52       0.001     0.000
  YS02001601              2.11   1445.63      0  01:26       6.853     0.000
  YS02001602              2.08     62.65      0  02:52       0.457     0.000
  YS02001605              0.01     22.12      0  02:52       0.000     0.000
  YS02001607              0.01    354.17      0  01:07       0.003     0.000
  YS02001610              2.03    949.73      0  01:29       4.770     0.000
  YS02001613              0.01    423.62      0  01:07       0.001     0.000
  YS02001616              0.18    432.79      0  01:07       0.002     0.000
  YS02001619              0.17    255.76      0  01:07       0.022     0.000
  YS02001622              0.01    279.34      0  01:07       0.001     0.000
  YS02001625              2.04   1505.17      0  01:27       8.347     0.000
  YS02001629              0.51    263.08      0  01:07       0.125     0.000
  YS02001633              0.01     17.64      0  02:52       0.000     0.000
  YS02001641              0.01     17.43      0  02:52       0.000     0.000
  YS02001644              1.88    942.90      0  01:24       3.873     0.000
  YS02001649              0.01    174.25      0  01:09       0.002     0.000
  YS02001652              0.01    497.78      0  01:08       0.001     0.000
  YS02001655              0.01    501.26      0  01:08       0.001     0.000
  YS02001748              0.01    473.33      0  01:09       0.002     0.000
  YS02001751              0.01    387.56      0  01:09       0.000     0.000
  YS02001754              0.01    468.81      0  01:08       0.001     0.000
  YS02001757              0.01     74.27      0  01:09       0.000     0.000
  YS02001762              0.01    157.54      0  01:08       0.000     0.000
  YS02001765              0.01      9.44      0  02:52       0.000     0.000
  YS02001767              0.01    257.13      0  01:08       0.000     0.000
  YS02001770              0.01    161.56      0  01:08       0.001     0.000
  YS02001774              0.01      0.05      0  02:52       0.000     0.000
  YS02001779              1.87    611.06      0  01:08       1.596     0.000
  YS02001783              0.01      0.28      0  02:52       0.000     0.000
  YS02001882              0.01     52.73      0  01:07       0.000     0.000
  YS02001884              0.01     80.81      0  01:07       0.000     0.000
  YS02001890              1.10    353.36      0  01:07       0.487     0.000
  YS02001895              0.01     52.55      0  01:07       0.000     0.000
  YS02001898              0.01    264.10      0  01:07       0.001     0.000
  YS02001901              0.01     45.45      0  01:07       0.000     0.000
  YS02001907              1.90   2160.01      0  01:25       8.493     0.000
  YS02001915              0.01    354.38      0  01:07       0.001     0.000
  YS02001918              0.01    254.99      0  01:08       0.004     0.000
  YS02001920              0.01    430.99      0  01:07       0.001     0.000
  YS02001923              0.01    271.92      0  01:08       0.001     0.000
  YS02001926              0.01    680.24      0  01:08       0.004     0.000
  YS02001929              0.01    849.94      0  01:08       0.004     0.000
  YS02163601              0.01     75.43      0  02:52       0.000     0.000
  YS02164001              0.01     79.04      0  02:52       0.000     0.000
  
  
  **********************
  Storage Volume Summary
  **********************
  
  ------------------------------------------------------------------------------------------------
                         Average    Avg   Evap  Exfil     Maximum    Max    Time of Max    Maximum
                          Volume   Pcnt   Pcnt   Pcnt      Volume   Pcnt     Occurrence    Outflow
  Storage Unit           1000 m³   Full   Loss   Loss     1000 m³   Full    days hr:min        LPS
  ------------------------------------------------------------------------------------------------
  CC-storage               2.830   44.1    0.0    0.0       6.329   98.7       0  03:02    1783.53
  JK-storage               0.001    0.5    0.0    0.0       0.150   51.6       0  00:00    2300.00
  
  
  ***********************
  Outfall Loading Summary
  ***********************
  
  -----------------------------------------------------------
                         Flow       Avg       Max       Total
                         Freq      Flow      Flow      Volume
  Outfall Node           Pcnt       LPS       LPS    10^6 ltr
  -----------------------------------------------------------
  CC-1                  70.91    683.00    683.00       9.233
  CC-2                  70.91    683.00    683.00       9.233
  JK-1                  23.81    999.89   1000.00       3.713
  JK-2                  23.81    999.89   1000.00       3.713
  WSC                   99.96    343.35    543.27       7.395
  -----------------------------------------------------------
  System                57.88   3709.14   3898.74      33.288
  
  
  ********************
  Link Flow Summary
  ********************
  
  -----------------------------------------------------------------------------
                                 Maximum  Time of Max   Maximum    Max/    Max/
                                  |Flow|   Occurrence   |Veloc|    Full    Full
  Link                 Type          LPS  days hr:min     m/sec    Flow   Depth
  -----------------------------------------------------------------------------
  1                    CONDUIT    543.27     0  03:28      2.81    0.19    0.29
  WS02003060WS02003069 CONDUIT    541.57     0  03:25      1.63    0.21    0.33
  WS02003066WSF200     CONDUIT    524.78     0  03:26      2.84    0.09    0.22
  WS02003067WS02003066 CONDUIT    524.71     0  03:26      1.19    0.17    0.41
  WS02003069WS02003072 CONDUIT    541.49     0  03:26      1.36    0.26    0.38
  WS02003072WS02003073 CONDUIT    541.50     0  03:27      1.42    1.17    0.37
  WS02004401WS02004402 CONDUIT    532.77     0  03:22      1.22    0.64    0.86
  WS02004402WS02004403 CONDUIT    530.98     0  03:21      1.24    0.76    0.88
  WS02004403WS02004404 CONDUIT    530.86     0  03:22      1.24    0.38    0.92
  WS02004404WS02004405 CONDUIT    531.04     0  03:22      1.45    5.20    0.95
  WS02004405WS02004406 CONDUIT    530.79     0  03:22      1.46    1.05    0.95
  WS02004406WS02004407 CONDUIT    530.37     0  03:22      1.03    0.24    0.62
  WS02004407WS02004409 CONDUIT    529.90     0  03:23      1.59    0.19    0.48
  WS02004409WS02004410 CONDUIT    528.26     0  03:23      1.06    0.68    0.67
  WS02004410WS02004411 CONDUIT    526.72     0  03:23      1.12    0.72    0.68
  WS02004411WS02004412 CONDUIT    525.57     0  03:24      1.22    0.75    0.69
  WS02004412WS02004413 CONDUIT    525.14     0  03:25      1.22    0.35    0.77
  WS02004413WS02003067 CONDUIT    524.69     0  03:26      1.10    0.22    0.59
  WS02006109WS02006110 CONDUIT    545.00     0  03:19      1.08    1.05    1.00
  WS02006110WS02006113 CONDUIT    555.76     0  03:19      1.32    0.51    0.78
  WS02006111WS02006112 CONDUIT    541.11     0  03:21      1.95    0.26    0.67
  WS02006112WS02006115 CONDUIT    548.97     0  03:19      0.85    0.32    0.87
  WS02006113WS02006111 CONDUIT    559.30     0  03:21      2.46    0.67    0.46
  WS02006115WS02006116 CONDUIT    534.62     0  03:21      1.29    0.69    0.75
  WS02006116WS02004401 CONDUIT    533.36     0  03:21      1.21    0.74    0.83
  WS02006228WS02006109 CONDUIT    544.20     0  03:19      1.08    2.38    1.00
  WS02006229WS02006228 CONDUIT    544.51     0  03:19      1.12    1.80    1.00
  WS02006230WS02006229 CONDUIT    544.61     0  03:19      1.42   12.12    1.00
  WS02006231WS02006230 CONDUIT    563.98     0  03:25      1.52    8.55    1.00
  WS02006232WS02006231 CONDUIT    560.27     0  03:22      1.46    1.17    1.00
  WS02006234WS02006232 CONDUIT    557.18     0  03:22      1.45    1.13    1.00
  WS02006235WS02006234 CONDUIT    556.48     0  03:28      1.45    5.87    1.00
  WS02006238WS02006235 CONDUIT    443.96     0  04:23      1.45    0.99    1.00
  WS02006239WS02006238 CONDUIT    426.48     0  03:35      1.11    1.36    1.00
  WS02006240WS02006239 CONDUIT    420.83     0  03:33      1.24    1.32    1.00
  WS02006242WS02006240 CONDUIT    420.63     0  03:35      1.16    1.67    1.00
  WS02006243WS02006242 CONDUIT    422.62     0  03:34      1.39    0.90    1.00
  WS02006245WS02006243 CONDUIT    422.97     0  03:34      1.44    1.25    1.00
  WS02006247WS02006245 CONDUIT    423.33     0  03:35      1.43    3.36    1.00
  WS02006248WS02006247 CONDUIT    424.03     0  03:35      1.44    0.92    1.00
  WS02006249WS02006248 CONDUIT    423.13     0  03:35      1.39    2.32    1.00
  WS02006251WS02006249 CONDUIT    473.75     0  04:43      1.99    1.37    1.00
  WS02006252WS02006251 CONDUIT    403.14     0  03:35      5.69    1.48    1.00
  WS02006256WS02006235 CONDUIT    288.91     0  00:00      4.23    3.06    1.00
  WSF200WS02003060     CONDUIT    525.14     0  03:26      2.05    0.12    0.28
  YS02001580YS02001583 CONDUIT    302.55     0  01:06      1.17    1.17    1.00
  YS02001583YS02001586 CONDUIT    305.10     0  01:05      1.33    0.46    1.00
  YS02001586YS02001590 CONDUIT    338.06     0  02:52      1.42    0.59    1.00
  YS02001590YS02001593 CONDUIT    346.72     0  02:52      1.23    2.18    1.00
  YS02001593YS02001596 CONDUIT    324.35     0  02:52      1.69    0.51    1.00
  YS02001596YS02001600 CONDUIT    322.94     0  02:52      1.25    0.63    1.00
  YS02001600YS02001601 CONDUIT    318.01     0  02:51      1.12    0.55    1.00
  YS02001601YS02001602 CONDUIT    620.44     0  01:06      2.19    2.24    1.00
  YS02001602YS02001605 CONDUIT    620.27     0  01:06      2.19   13.13    1.00
  YS02001605YS02001607 CONDUIT    619.73     0  01:06      2.19    3.40    1.00
  YS02001607YS02001610 CONDUIT    688.67     0  01:06      1.06    0.65    1.00
  YS02001610YS02001613 CONDUIT    614.60     0  01:06      0.88    0.71    1.00
  YS02001613YS02001616 CONDUIT    613.38     0  01:29      0.90    0.53    1.00
  YS02001616YS02001619 CONDUIT    613.49     0  01:29      0.94    1.07    1.00
  YS02001619YS02001622 CONDUIT   1053.67     0  01:29      2.17    1.55    1.00
  YS02001622YS02001625 CONDUIT   1053.52     0  01:27      1.34    0.56    1.00
  YS02001625YS02001629 CONDUIT    731.11     0  01:06      1.10    0.35    1.00
  YS02001629YS02163301 CONDUIT    707.41     0  03:10      0.90    0.87    1.00
  YS02001633YS02163601 CONDUIT   1245.05     0  01:07      1.59    1.31    1.00
  YS02001641YS02001644 CONDUIT   1238.68     0  01:07      1.58    4.00    1.00
  YS02001644YS02001647 CONDUIT   1858.40     0  01:08      2.37    1.09    1.00
  YS02001647YS02001649 CONDUIT   1857.57     0  01:08      2.37    0.98    1.00
  YS02001649YS02001757 CONDUIT   2111.53     0  01:08      2.69    1.28    1.00
  YS02001652YS02001649 CONDUIT    950.63     0  01:10      1.66    0.47    1.00
  YS02001655YS02001652 CONDUIT    949.61     0  01:10      2.12    0.46    1.00
  YS02001658YS02001655 CONDUIT    949.46     0  01:10      2.29    0.40    1.00
  YS02001661YS02001658 CONDUIT    949.68     0  01:10      2.58    0.37    1.00
  YS02001664YS02001661 CONDUIT    948.60     0  01:10      2.55    0.30    0.96
  YS02001745YS02001748 CONDUIT    640.53     0  01:09      2.48    0.25    1.00
  YS02001748YS02001751 CONDUIT    596.40     0  01:09      2.01    0.30    1.00
  YS02001751YS02001754 CONDUIT    595.96     0  01:09      1.98    0.29    1.00
  YS02001754YS02001757 CONDUIT    595.39     0  01:09      1.20    0.24    1.00
  YS02001757CaochengTiaoxuchi CONDUIT   3543.94     0  01:26      7.54    1.53    1.00
  YS02001759YS02001757 CONDUIT   1417.71     0  01:25      1.81    1.01    1.00
  YS02001762YS02001759 CONDUIT    739.99     0  01:35      0.94    0.85    1.00
  YS02001765YS02001762 CONDUIT    740.38     0  01:35      0.94    0.69    1.00
  YS02001767YS02001765 CONDUIT    740.07     0  01:35      0.98    0.93    1.00
  YS02001770YS02001767 CONDUIT    739.04     0  01:35      1.07    2.93    1.00
  YS02001774YS02001770 CONDUIT    655.21     0  01:08      0.95    0.42    1.00
  YS02001779YS02001774 CONDUIT    660.94     0  01:08      0.86    0.33    1.00
  YS02001783YS02001784 CONDUIT   1162.20     0  01:10      2.31    1.60    1.00
  YS02001784YS02001785 CONDUIT   1163.17     0  01:09      2.31    2.71    1.00
  YS02001786YS02001788 CONDUIT   1163.31     0  01:10      2.49    2.24    0.89
  YS02001788YS02001790 CONDUIT   1183.12     0  01:08      2.76    0.87    0.84
  YS02001790YS02001791 CONDUIT   1292.03     0  01:21      3.43    1.41    0.70
  YS02001791YS02001793 CONDUIT   1252.33     0  01:40      6.39    0.54    0.43
  YS02001793JiankangQianchi CONDUIT   1300.71     0  01:56     24.21    0.10    0.50
  YS02001882YS02001884 CONDUIT    127.01     0  01:07      0.57    0.15    1.00
  YS02001884YS02001887 CONDUIT    240.05     0  01:06      0.55    0.32    1.00
  YS02001887YS02001890 CONDUIT    783.51     0  01:24      1.00    1.34    1.00
  YS02001890YS02001895 CONDUIT    612.73     0  01:07      0.78    0.29    1.00
  YS02001895YS02001898 CONDUIT    612.01     0  01:07      0.92    1.06    1.00
  YS02001898YS02001901 CONDUIT    611.69     0  01:07      0.78    0.39    1.00
  YS02001901YS02001904 CONDUIT    611.35     0  01:07      0.90    0.95    1.00
  YS02001904YS02001907 CONDUIT    609.85     0  01:07      0.78    0.21    1.00
  YS02001907YS02006553 CONDUIT    811.04     0  03:03      0.90    0.95    1.00
  YS02001910YS02001907 CONDUIT   1652.45     0  01:25      2.10    0.93    1.00
  YS02001915YS02001910 CONDUIT   1652.81     0  01:25      2.10    0.82    1.00
  YS02001918YS02001915 CONDUIT    962.90     0  01:07      1.23    0.53    1.00
  YS02001920YS02001918 CONDUIT    915.16     0  01:07      1.17    0.89    1.00
  YS02001923YS02001920 CONDUIT    876.31     0  01:07      1.15    0.39    1.00
  YS02001926YS02001923 CONDUIT   1168.10     0  01:08      1.63    1.67    1.00
  YS02001929YS02001926 CONDUIT    663.27     0  01:08      1.27    0.31    1.00
  YS02006553YS02006556 CONDUIT    810.97     0  03:03      1.03    0.69    1.00
  YS02006556YS02006558 CONDUIT    812.31     0  03:03      1.03    0.64    1.00
  YS02006558YS02006561 CONDUIT   1206.89     0  01:07      4.27    2.67    1.00
  YS02006561YS02001783 CONDUIT   1162.17     0  01:09      2.31    0.60    1.00
  YS02163301YS02001633 CONDUIT    707.69     0  03:10      0.90    0.67    1.00
  YS02163601YS02164001 CONDUIT   1241.83     0  01:07      1.58    1.10    1.00
  YS02164001YS02001641 CONDUIT   1240.39     0  01:07      1.58    1.69    1.00
  CC-R1                PUMP       683.00     0  00:00              1.00
  CC-R2                PUMP       683.00     0  00:00              1.00
  CC-S1                PUMP       200.00     0  00:00              1.00
  CC-S2                PUMP       200.00     0  00:00              1.00
  JK-R1                PUMP      1000.00     0  00:00              1.00
  JK-R2                PUMP      1000.00     0  00:00              1.00
  JK-S                 PUMP       300.00     0  00:00              1.00
  
  
  ***************************
  Flow Classification Summary
  ***************************
  
  -------------------------------------------------------------------------------------
                      Adjusted    ---------- Fraction of Time in Flow Class ---------- 
                       /Actual         Up    Down  Sub   Sup   Up    Down  Norm  Inlet 
  Conduit               Length    Dry  Dry   Dry   Crit  Crit  Crit  Crit  Ltd   Ctrl  
  -------------------------------------------------------------------------------------
  1                       1.00   0.00  0.00  0.00  0.00  1.00  0.00  0.00  0.38  0.00
  WS02003060WS02003069    1.00   0.00  0.00  0.00  0.98  0.02  0.00  0.00  0.56  0.00
  WS02003066WSF200        1.00   0.05  0.00  0.00  0.00  0.95  0.00  0.00  0.85  0.00
  WS02003067WS02003066    1.00   0.05  0.00  0.00  0.95  0.00  0.00  0.00  0.00  0.00
  WS02003069WS02003072    1.00   0.00  0.00  0.00  0.99  0.01  0.00  0.00  0.56  0.00
  WS02003072WS02003073    1.00   0.00  0.00  0.00  0.00  0.00  0.00  1.00  0.00  0.00
  WS02004401WS02004402    1.00   0.02  0.00  0.00  0.98  0.00  0.00  0.00  0.00  0.00
  WS02004402WS02004403    1.00   0.02  0.00  0.00  0.98  0.00  0.00  0.00  0.00  0.00
  WS02004403WS02004404    1.00   0.00  0.03  0.00  0.97  0.00  0.00  0.00  0.00  0.00
  WS02004404WS02004405    1.00   0.00  0.00  0.00  1.00  0.00  0.00  0.00  0.01  0.00
  WS02004405WS02004406    1.00   0.00  0.00  0.00  1.00  0.00  0.00  0.00  0.00  0.00
  WS02004406WS02004407    1.00   0.00  0.03  0.00  0.97  0.00  0.00  0.00  0.00  0.00
  WS02004407WS02004409    1.00   0.03  0.00  0.00  0.95  0.01  0.00  0.00  0.95  0.00
  WS02004409WS02004410    1.00   0.03  0.00  0.00  0.96  0.00  0.00  0.00  0.00  0.00
  WS02004410WS02004411    1.00   0.04  0.00  0.00  0.96  0.00  0.00  0.00  0.00  0.00
  WS02004411WS02004412    1.00   0.04  0.00  0.00  0.96  0.00  0.00  0.00  0.00  0.00
  WS02004412WS02004413    1.00   0.04  0.00  0.00  0.96  0.00  0.00  0.00  0.00  0.00
  WS02004413WS02003067    1.00   0.04  0.01  0.00  0.00  0.00  0.95  0.00  0.00  0.00
  WS02006109WS02006110    1.00   0.00  0.01  0.00  0.98  0.00  0.01  0.00  0.00  0.00
  WS02006110WS02006113    1.00   0.01  0.01  0.00  0.98  0.00  0.00  0.00  0.00  0.00
  WS02006111WS02006112    1.00   0.02  0.00  0.00  0.98  0.00  0.00  0.00  0.98  0.00
  WS02006112WS02006115    1.00   0.02  0.00  0.00  0.97  0.00  0.00  0.00  0.00  0.00
  WS02006113WS02006111    1.00   0.02  0.00  0.00  0.00  0.98  0.00  0.00  0.14  0.00
  WS02006115WS02006116    1.00   0.02  0.00  0.00  0.97  0.00  0.00  0.01  0.00  0.00
  WS02006116WS02004401    1.00   0.02  0.00  0.00  0.98  0.00  0.00  0.00  0.00  0.00
  WS02006228WS02006109    1.00   0.00  0.00  0.00  1.00  0.00  0.00  0.00  0.00  0.00
  WS02006229WS02006228    1.00   0.00  0.00  0.00  0.99  0.00  0.00  0.01  0.00  0.00
  WS02006230WS02006229    1.00   0.00  0.00  0.00  0.99  0.00  0.00  0.01  0.02  0.00
  WS02006231WS02006230    1.00   0.00  0.00  0.00  0.45  0.00  0.55  0.00  0.00  0.00
  WS02006232WS02006231    1.00   0.00  0.00  0.00  0.99  0.00  0.01  0.00  0.00  0.00
  WS02006234WS02006232    1.00   0.00  0.00  0.00  1.00  0.00  0.00  0.00  0.00  0.00
  WS02006235WS02006234    1.00   0.00  0.00  0.00  0.97  0.00  0.03  0.00  0.00  0.00
  WS02006238WS02006235    1.00   0.00  0.00  0.00  1.00  0.00  0.00  0.00  0.00  0.00
  WS02006239WS02006238    1.00   0.00  0.00  0.00  1.00  0.00  0.00  0.00  0.04  0.00
  WS02006240WS02006239    1.00   0.00  0.00  0.00  0.95  0.00  0.00  0.04  0.18  0.00
  WS02006242WS02006240    1.00   0.00  0.00  0.00  0.96  0.00  0.04  0.00  0.00  0.00
  WS02006243WS02006242    1.00   0.00  0.00  0.00  0.98  0.00  0.00  0.02  0.45  0.00
  WS02006245WS02006243    1.00   0.00  0.00  0.00  0.81  0.00  0.00  0.18  0.01  0.00
  WS02006247WS02006245    1.00   0.00  0.00  0.00  0.98  0.00  0.00  0.02  0.00  0.00
  WS02006248WS02006247    1.00   0.00  0.00  0.00  0.99  0.00  0.00  0.01  0.31  0.00
  WS02006249WS02006248    1.00   0.00  0.00  0.00  0.56  0.00  0.44  0.00  0.00  0.00
  WS02006251WS02006249    1.00   0.00  0.00  0.00  0.99  0.01  0.00  0.00  0.45  0.00
  WS02006252WS02006251    1.00   0.00  0.38  0.00  0.30  0.00  0.32  0.00  0.00  0.00
  WS02006256WS02006235    1.00   0.00  0.00  0.00  0.97  0.03  0.00  0.00  0.01  0.00
  WSF200WS02003060        1.00   0.00  0.05  0.00  0.16  0.79  0.00  0.00  0.50  0.00
  YS02001580YS02001583    1.00   0.14  0.49  0.00  0.37  0.00  0.00  0.00  0.58  0.00
  YS02001583YS02001586    1.00   0.36  0.22  0.00  0.42  0.00  0.00  0.00  0.59  0.00
  YS02001586YS02001590    1.00   0.13  0.00  0.00  0.53  0.03  0.00  0.31  0.27  0.00
  YS02001590YS02001593    1.00   0.13  0.00  0.00  0.29  0.00  0.59  0.00  0.00  0.00
  YS02001593YS02001596    1.00   0.13  0.00  0.00  0.30  0.00  0.00  0.57  0.01  0.00
  YS02001596YS02001600    1.00   0.13  0.00  0.00  0.33  0.01  0.00  0.54  0.02  0.00
  YS02001600YS02001601    1.00   0.13  0.00  0.00  0.87  0.00  0.00  0.00  0.51  0.00
  YS02001601YS02001602    1.00   0.13  0.00  0.00  0.87  0.00  0.00  0.00  0.00  0.00
  YS02001602YS02001605    1.00   0.13  0.00  0.00  0.87  0.00  0.00  0.00  0.00  0.00
  YS02001605YS02001607    1.00   0.13  0.00  0.00  0.87  0.00  0.00  0.00  0.00  0.00
  YS02001607YS02001610    1.00   0.13  0.00  0.00  0.87  0.00  0.00  0.00  0.00  0.00
  YS02001610YS02001613    1.00   0.13  0.00  0.00  0.87  0.00  0.00  0.00  0.00  0.00
  YS02001613YS02001616    1.00   0.13  0.00  0.00  0.87  0.00  0.00  0.00  0.00  0.00
  YS02001616YS02001619    1.00   0.13  0.00  0.00  0.87  0.00  0.00  0.00  0.00  0.00
  YS02001619YS02001622    1.00   0.13  0.00  0.00  0.87  0.00  0.00  0.00  0.23  0.00
  YS02001622YS02001625    1.00   0.13  0.00  0.00  0.87  0.00  0.00  0.00  0.00  0.00
  YS02001625YS02001629    1.00   0.13  0.01  0.00  0.33  0.00  0.53  0.00  0.00  0.00
  YS02001629YS02163301    1.00   0.13  0.00  0.00  0.87  0.00  0.00  0.00  0.00  0.00
  YS02001633YS02163601    1.00   0.00  0.01  0.00  0.99  0.00  0.00  0.00  0.12  0.00
  YS02001641YS02001644    1.00   0.00  0.01  0.00  0.99  0.00  0.00  0.00  0.00  0.00
  YS02001644YS02001647    1.00   0.00  0.13  0.00  0.87  0.00  0.00  0.00  0.00  0.00
  YS02001647YS02001649    1.00   0.00  0.13  0.00  0.64  0.23  0.00  0.00  0.51  0.00
  YS02001649YS02001757    1.00   0.00  0.00  0.00  0.94  0.06  0.00  0.00  0.60  0.00
  YS02001652YS02001649    1.00   0.00  0.00  0.00  1.00  0.00  0.00  0.00  0.62  0.00
  YS02001655YS02001652    1.00   0.00  0.00  0.00  0.35  0.00  0.00  0.64  0.02  0.00
  YS02001658YS02001655    1.00   0.00  0.13  0.00  0.83  0.04  0.00  0.00  0.54  0.00
  YS02001661YS02001658    1.00   0.13  0.00  0.00  0.68  0.19  0.00  0.00  0.57  0.00
  YS02001664YS02001661    1.00   0.13  0.00  0.00  0.86  0.02  0.00  0.00  0.63  0.00
  YS02001745YS02001748    1.00   0.00  0.00  0.00  0.31  0.00  0.00  0.68  0.03  0.00
  YS02001748YS02001751    1.00   0.00  0.00  0.00  0.98  0.02  0.00  0.00  0.66  0.00
  YS02001751YS02001754    1.00   0.00  0.00  0.00  0.35  0.00  0.00  0.64  0.02  0.00
  YS02001754YS02001757    1.00   0.00  0.00  0.00  1.00  0.00  0.00  0.00  0.64  0.00
  YS02001757CaochengTiaoxuchi    1.00   0.00  0.00  0.00  0.40  0.60  0.00  0.00  0.09  0.00
  YS02001759YS02001757    1.00   0.00  0.00  0.00  0.99  0.01  0.00  0.00  0.60  0.00
  YS02001762YS02001759    1.00   0.00  0.00  0.00  1.00  0.00  0.00  0.00  0.01  0.00
  YS02001765YS02001762    1.00   0.00  0.00  0.00  1.00  0.00  0.00  0.00  0.60  0.00
  YS02001767YS02001765    1.00   0.00  0.00  0.00  1.00  0.00  0.00  0.00  0.00  0.00
  YS02001770YS02001767    1.00   0.00  0.00  0.00  1.00  0.00  0.00  0.00  0.00  0.00
  YS02001774YS02001770    1.00   0.00  0.13  0.00  0.74  0.00  0.13  0.00  0.00  0.00
  YS02001779YS02001774    1.00   0.00  0.00  0.00  1.00  0.00  0.00  0.00  0.63  0.00
  YS02001783YS02001784    1.00   0.00  0.13  0.00  0.87  0.00  0.00  0.00  0.51  0.00
  YS02001784YS02001785    1.00   0.00  0.00  0.00  1.00  0.00  0.00  0.00  0.12  0.00
  YS02001786YS02001788    1.00   0.00  0.00  0.00  0.89  0.11  0.00  0.00  0.00  0.00
  YS02001788YS02001790    1.00   0.00  0.00  0.00  0.27  0.73  0.00  0.00  0.71  0.00
  YS02001790YS02001791    1.00   0.00  0.00  0.00  0.01  0.99  0.00  0.00  0.09  0.00
  YS02001791YS02001793    1.00   0.00  0.00  0.00  0.00  1.00  0.00  0.00  0.05  0.00
  YS02001793JiankangQianchi    1.00   0.00  0.00  0.00  0.00  1.00  0.00  0.00  0.16  0.00
  YS02001882YS02001884    1.00   0.13  0.00  0.00  0.87  0.00  0.00  0.00  0.00  0.00
  YS02001884YS02001887    1.00   0.06  0.05  0.00  0.89  0.00  0.00  0.00  0.00  0.00
  YS02001887YS02001890    1.00   0.00  0.00  0.00  0.97  0.00  0.03  0.00  0.00  0.00
  YS02001890YS02001895    1.00   0.00  0.13  0.00  0.87  0.00  0.00  0.00  0.00  0.00
  YS02001895YS02001898    1.00   0.13  0.00  0.00  0.86  0.00  0.00  0.00  0.00  0.00
  YS02001898YS02001901    1.00   0.13  0.00  0.00  0.87  0.00  0.00  0.00  0.00  0.00
  YS02001901YS02001904    1.00   0.13  0.00  0.00  0.87  0.00  0.00  0.00  0.00  0.00
  YS02001904YS02001907    1.00   0.00  0.13  0.00  0.87  0.00  0.00  0.00  0.00  0.00
  YS02001907YS02006553    1.00   0.00  0.02  0.00  0.98  0.00  0.00  0.00  0.00  0.00
  YS02001910YS02001907    1.00   0.00  0.00  0.00  0.97  0.00  0.00  0.03  0.10  0.00
  YS02001915YS02001910    1.00   0.00  0.00  0.00  0.98  0.02  0.00  0.00  0.10  0.00
  YS02001918YS02001915    1.00   0.00  0.01  0.00  0.98  0.02  0.00  0.00  0.60  0.00
  YS02001920YS02001918    1.00   0.00  0.01  0.00  0.99  0.00  0.00  0.00  0.00  0.00
  YS02001923YS02001920    1.00   0.00  0.00  0.00  1.00  0.00  0.00  0.00  0.74  0.00
  YS02001926YS02001923    1.00   0.00  0.07  0.00  0.25  0.00  0.68  0.00  0.00  0.00
  YS02001929YS02001926    1.00   0.00  0.13  0.00  0.87  0.00  0.00  0.00  0.62  0.00
  YS02006553YS02006556    1.00   0.01  0.00  0.00  0.99  0.00  0.00  0.00  0.03  0.00
  YS02006556YS02006558    1.00   0.00  0.00  0.00  1.00  0.00  0.00  0.00  0.00  0.00
  YS02006558YS02006561    1.00   0.13  0.00  0.00  0.25  0.62  0.00  0.00  0.12  0.00
  YS02006561YS02001783    1.00   0.13  0.00  0.00  0.26  0.60  0.00  0.00  0.59  0.00
  YS02163301YS02001633    1.00   0.00  0.13  0.00  0.87  0.00  0.00  0.00  0.00  0.00
  YS02163601YS02164001    1.00   0.00  0.08  0.00  0.92  0.00  0.00  0.00  0.00  0.00
  YS02164001YS02001641    1.00   0.01  0.08  0.00  0.92  0.00  0.00  0.00  0.05  0.00
  
  
  *************************
  Conduit Surcharge Summary
  *************************
  
  ----------------------------------------------------------------------------
                                                           Hours        Hours 
                         --------- Hours Full --------   Above Full   Capacity
  Conduit                Both Ends  Upstream  Dnstream   Normal Flow   Limited
  ----------------------------------------------------------------------------
  WS02003072WS02003073        0.01      0.01      0.01      2.56         0.01
  WS02004404WS02004405        0.01      0.01      0.01      4.10         0.01
  WS02004405WS02004406        0.01      0.01      0.01      1.87         0.01
  WS02006109WS02006110        0.05      0.05      3.48      0.07         0.01
  WS02006110WS02006113        0.01      0.01      3.47      0.01         0.01
  WS02006111WS02006112        0.01      0.01      3.53      0.01         0.01
  WS02006112WS02006115        0.01      0.01      2.12      0.01         0.01
  WS02006228WS02006109        3.42      3.49      3.42      3.74         3.42
  WS02006229WS02006228        3.41      3.43      3.41      3.65         3.38
  WS02006230WS02006229        3.55      3.59      3.55      4.98         3.55
  WS02006231WS02006230        0.04      0.04      2.25      4.33         0.01
  WS02006232WS02006231        1.94      1.94      3.51      2.23         0.01
  WS02006234WS02006232        3.19      3.19      3.51      1.53         1.36
  WS02006235WS02006234        2.70      2.72      3.39      4.10         0.30
  WS02006238WS02006235        3.45      3.45      3.53      0.01         0.06
  WS02006239WS02006238        3.47      3.51      3.48      3.61         2.26
  WS02006240WS02006239        3.43      3.46      3.44      3.61         2.27
  WS02006242WS02006240        3.44      3.44      3.57      3.70         0.01
  WS02006243WS02006242        3.47      3.47      3.54      0.01         0.39
  WS02006245WS02006243        3.45      3.46      3.45      3.62         2.30
  WS02006247WS02006245        3.45      3.48      3.45      3.88         3.17
  WS02006248WS02006247        3.45      3.45      3.47      0.01         0.92
  WS02006249WS02006248        3.44      3.44      3.46      3.86         0.01
  WS02006251WS02006249        3.45      3.46      3.46      3.83         3.18
  WS02006252WS02006251        3.89      3.89      3.89      3.89         0.01
  WS02006256WS02006235        3.21      4.14      6.14      2.44         0.13
  YS02001580YS02001583        2.07      2.07      2.10      0.01         0.01
  YS02001583YS02001586        2.08      2.08      2.16      0.01         0.01
  YS02001586YS02001590        2.17      2.17      2.21      0.01         0.01
  YS02001590YS02001593        2.21      2.21      2.22      2.25         0.01
  YS02001593YS02001596        2.22      2.22      2.27      0.01         0.01
  YS02001596YS02001600        2.29      2.29      2.35      0.01         0.01
  YS02001600YS02001601        2.39      2.39      2.53      0.01         0.01
  YS02001601YS02001602        2.49      2.49      2.55      2.29         0.01
  YS02001602YS02001605        2.47      2.47      2.49      2.99         0.01
  YS02001605YS02001607        2.45      2.47      2.47      2.39         2.36
  YS02001607YS02001610        2.23      2.23      2.24      0.01         0.01
  YS02001610YS02001613        2.23      2.23      2.24      0.01         0.01
  YS02001613YS02001616        2.20      2.20      2.23      0.01         0.01
  YS02001616YS02001619        2.19      2.19      2.20      0.30         0.33
  YS02001619YS02001622        2.19      2.19      2.19      2.12         2.02
  YS02001622YS02001625        2.19      2.19      2.33      0.01         0.01
  YS02001625YS02001629        2.17      2.17      2.33      0.01         0.01
  YS02001629YS02163301        2.35      2.35      2.36      0.01         0.03
  YS02001633YS02163601        2.38      2.38      2.42      0.03         0.02
  YS02001641YS02001644        2.38      2.39      2.38      2.60         2.09
  YS02001644YS02001647        2.26      2.26      2.38      0.02         0.01
  YS02001647YS02001649        2.26      2.26      2.38      0.01         0.01
  YS02001649YS02001757        2.38      2.38      2.46      0.03         0.07
  YS02001652YS02001649        2.25      2.25      2.38      0.01         0.01
  YS02001655YS02001652        2.10      2.10      2.23      0.01         0.01
  YS02001658YS02001655        1.91      1.91      2.10      0.01         0.01
  YS02001661YS02001658        0.17      0.17      1.91      0.01         0.01
  YS02001664YS02001661        0.01      0.01      0.89      0.01         0.01
  YS02001745YS02001748        0.01      0.01      1.88      0.01         0.01
  YS02001748YS02001751        1.92      1.92      2.06      0.01         0.01
  YS02001751YS02001754        2.06      2.06      2.19      0.01         0.01
  YS02001754YS02001757        2.22      2.22      2.46      0.01         0.01
  YS02001757CaochengTiaoxuchi        1.99      2.46      2.42      1.22         0.74
  YS02001759YS02001757        2.39      2.39      2.46      0.10         0.15
  YS02001762YS02001759        2.36      2.36      2.39      0.01         0.04
  YS02001765YS02001762        2.32      2.32      2.36      0.01         0.01
  YS02001767YS02001765        2.30      2.30      2.32      0.01         0.07
  YS02001770YS02001767        2.29      2.29      2.30      1.99         1.89
  YS02001774YS02001770        2.27      2.27      2.34      0.01         0.01
  YS02001779YS02001774        2.17      2.17      2.34      0.01         0.01
  YS02001783YS02001784        1.99      2.01      1.99      2.07         1.99
  YS02001784YS02001785        1.93      1.99      1.93      2.13         1.93
  YS02001786YS02001788        0.01      1.93      0.01      2.10         0.01
  YS02001790YS02001791        0.01      0.01      0.01      1.99         0.01
  YS02001882YS02001884        1.98      1.98      1.99      0.01         0.01
  YS02001884YS02001887        2.00      2.00      2.01      0.01         0.01
  YS02001887YS02001890        2.01      2.01      2.02      0.69         0.01
  YS02001890YS02001895        1.97      1.97      2.02      0.01         0.01
  YS02001895YS02001898        1.97      1.97      1.97      0.01         0.01
  YS02001898YS02001901        1.97      1.97      2.00      0.01         0.01
  YS02001901YS02001904        1.99      1.99      2.00      0.01         0.01
  YS02001904YS02001907        1.99      1.99      2.10      0.01         0.01
  YS02001907YS02006553        2.13      2.13      2.16      0.01         0.01
  YS02001910YS02001907        2.02      2.02      2.09      0.01         0.01
  YS02001915YS02001910        1.98      1.98      2.02      0.01         0.01
  YS02001918YS02001915        1.93      1.93      1.98      0.01         0.01
  YS02001920YS02001918        1.93      1.93      1.94      0.01         0.01
  YS02001923YS02001920        1.90      1.90      1.94      0.01         0.01
  YS02001926YS02001923        0.67      0.67      0.76      0.01         0.01
  YS02001929YS02001926        0.01      0.01      0.76      0.01         0.01
  YS02006553YS02006556        2.06      2.06      2.10      0.01         0.01
  YS02006556YS02006558        2.08      2.08      2.10      0.01         0.01
  YS02006558YS02006561        1.95      2.05      1.95      2.12         1.95
  YS02006561YS02001783        1.91      1.91      2.01      0.01         0.01
  YS02163301YS02001633        2.36      2.36      2.40      0.01         0.01
  YS02163601YS02164001        2.37      2.37      2.42      0.02         0.01
  YS02164001YS02001641        2.37      2.37      2.39      0.19         0.31
  
  
  ***************
  Pumping Summary
  ***************
  
  ---------------------------------------------------------------------------------------------------------
                                                  Min       Avg       Max     Total     Power    % Time Off
                        Percent   Number of      Flow      Flow      Flow    Volume     Usage    Pump Curve
  Pump                 Utilized   Start-Ups       LPS       LPS       LPS  10^6 ltr     Kw-hr    Low   High
  ---------------------------------------------------------------------------------------------------------
  CC-R1                   47.43           2      0.00    683.00    683.00     9.232    171.92    0.0   63.2
  CC-R2                   47.43           2      0.00    683.00    683.00     9.232    171.92    0.0   63.2
  CC-S1                   49.14           6      0.00    200.00    200.00     2.801     15.88    0.0   41.9
  CC-S2                   49.14           6      0.00    200.00    200.00     2.801     15.88    0.0   41.9
  JK-R1                   13.26         915      0.00    999.89   1000.00     3.777      8.84    0.0    0.0
  JK-R2                   13.26         915      0.00    999.89   1000.00     3.777      8.84    0.0    0.0
  JK-S                    25.09        1120      0.00    298.01    300.00     2.099     48.16    0.0    0.0
  

  Analysis begun on:  Thu Feb 27 17:15:25 2025
  Analysis ended on:  Thu Feb 27 17:15:27 2025
  Total elapsed time: 00:00:02