
  EPA STORM WATER MANAGEMENT MODEL - VERSION 5.2 (Build 5.2.4)
  PYSWMM TOOLKIT API - VERSION v1.0 (2023-11-27)
  ------------------------------------------------------------

  WARNING 04: minimum elevation drop used for Conduit WS02004404WS02004405
  WARNING 03: negative offset ignored for Link YS02001904YS02001907
  
  ****************
  Analysis Options
  ****************
  Flow Units ............... LPS
  Process Models:
    Rainfall/Runoff ........ YES
    RDII ................... NO
    Snowmelt ............... NO
    Groundwater ............ NO
    Flow Routing ........... YES
    Ponding Allowed ........ NO
    Water Quality .......... NO
  Infiltration Method ...... HORTON
  Flow Routing Method ...... DYNWAVE
  Surcharge Method ......... EXTRAN
  Starting Date ............ 08/28/2015 08:00:00
  Ending Date .............. 08/28/2015 16:00:00
  Antecedent Dry Days ...... 8.0
  Report Time Step ......... 00:01:00
  Wet Time Step ............ 00:01:00
  Dry Time Step ............ 00:01:00
  Routing Time Step ........ 30.00 sec
  Variable Time Step ....... YES
  Maximum Trials ........... 8
  Number of Threads ........ 4
  Head Tolerance ........... 0.001500 m
  
  
  **************************        Volume         Depth
  Runoff Quantity Continuity     hectare-m            mm
  **************************     ---------       -------
  Total Precipitation ......         1.447        43.610
  Evaporation Loss .........         0.000         0.000
  Infiltration Loss ........         0.093         2.817
  Surface Runoff ...........         1.320        39.808
  Final Storage ............         0.033         0.994
  Continuity Error (%) .....        -0.021
  
  
  **************************        Volume        Volume
  Flow Routing Continuity        hectare-m      10^6 ltr
  **************************     ---------     ---------
  Dry Weather Inflow .......         0.025         0.248
  Wet Weather Inflow .......         1.320        13.200
  Groundwater Inflow .......         0.000         0.000
  RDII Inflow ..............         0.000         0.000
  External Inflow ..........         0.083         0.825
  External Outflow .........         1.469        14.692
  Flooding Loss ............         0.222         2.220
  Evaporation Loss .........         0.000         0.000
  Exfiltration Loss ........         0.000         0.000
  Initial Stored Volume ....         0.243         2.431
  Final Stored Volume ......         0.039         0.391
  Continuity Error (%) .....        -3.587
  
  
  *************************
  Highest Continuity Errors
  *************************
  Node WS02006256 (-16.96%)
  Node YS02001583 (-11.92%)
  Node JK-storage (-9.21%)
  Node YS02001884 (5.13%)
  Node YS02001774 (1.95%)
  
  
  ***************************
  Time-Step Critical Elements
  ***************************
  Link WS02006238WS02006235 (43.85%)
  Link YS02001793JiankangQianchi (24.45%)
  Link WS02004404WS02004405 (6.82%)
  Link WS02003066WSF200 (6.58%)
  Link WS02006229WS02006228 (1.96%)
  
  
  ********************************
  Highest Flow Instability Indexes
  ********************************
  Link WS02006256WS02006235 (42)
  Link WS02006113WS02006111 (37)
  Link WS02006229WS02006228 (36)
  Link WS02006252WS02006251 (35)
  Link WS02006235WS02006234 (29)
  
  
  *********************************
  Most Frequent Nonconverging Nodes
  *********************************
  Node CC-1 (43.88%)
  Node CC-2 (43.88%)
  Node JK-1 (43.88%)
  Node JK-2 (43.88%)
  Node WSC (43.88%)
  
  
  *************************
  Routing Time Step Summary
  *************************
  Minimum Time Step           :     0.00 sec
  Average Time Step           :     2.65 sec
  Maximum Time Step           :     6.43 sec
  % of Time in Steady State   :     0.00
  Average Iterations per Step :     5.22
  % of Steps Not Converging   :    43.88
  Time Step Frequencies       :
     30.000 - 13.228 sec      :     0.00 %
     13.228 -  5.833 sec      :     5.48 %
      5.833 -  2.572 sec      :    37.92 %
      2.572 -  1.134 sec      :    40.64 %
      1.134 -  0.500 sec      :    15.96 %
  
  
  ***************************
  Subcatchment Runoff Summary
  ***************************
  
  ------------------------------------------------------------------------------------------------------------------------------
                            Total      Total      Total      Total     Imperv       Perv      Total       Total     Peak  Runoff
                           Precip      Runon       Evap      Infil     Runoff     Runoff     Runoff      Runoff   Runoff   Coeff
  Subcatchment                 mm         mm         mm         mm         mm         mm         mm    10^6 ltr      LPS
  ------------------------------------------------------------------------------------------------------------------------------
  sub60                     43.61       0.00       0.00       1.73      37.17       3.51      40.68        0.53   331.49   0.933
  sub61                     43.61       0.00       0.00       2.50      35.06       4.92      39.98        0.73   454.99   0.917
  sub62                     43.61       0.00       0.00       1.15      38.83       2.34      41.17        1.13   639.89   0.944
  sub63                     43.61       0.00       0.00       4.58      29.99       8.07      38.06        0.86   491.88   0.873
  sub64                     43.61       0.00       0.00       2.32      35.86       4.23      40.08        0.96   507.81   0.919
  sub65                     43.61       0.00       0.00       2.01      36.68       3.67      40.35        1.11   564.94   0.925
  sub66                     43.61       0.00       0.00       5.57      29.89       7.07      36.96        1.72   706.64   0.848
  sub67                     43.61       0.00       0.00       1.12      38.87       2.37      41.25        0.77   510.45   0.946
  sub68                     43.61       0.00       0.00       2.07      36.31       4.04      40.35        1.11   654.13   0.925
  sub69                     43.61       0.00       0.00       1.80      36.95       4.74      41.70        1.54   762.52   0.956
  sub70                     43.61       0.00       0.00       5.89      28.62       8.94      37.55        1.08   401.73   0.861
  sub71                     43.61       0.00       0.00       1.18      38.79       2.31      41.10        1.07   553.88   0.943
  sub72                     43.61       0.00       0.00       1.05      39.15       2.01      41.16        0.57   263.11   0.944
  
  
  ******************
  Node Depth Summary
  ******************
  
  ---------------------------------------------------------------------------------
                                 Average  Maximum  Maximum  Time of Max    Reported
                                   Depth    Depth      HGL   Occurrence   Max Depth
  Node                 Type       Meters   Meters   Meters  days hr:min      Meters
  ---------------------------------------------------------------------------------
  WS02003060           JUNCTION     0.23     0.38     5.32     0  02:48        0.38
  WS02003066           JUNCTION     0.19     0.30     5.85     0  02:47        0.30
  WS02003067           JUNCTION     0.49     0.70     6.02     0  02:47        0.70
  WS02003069           JUNCTION     0.25     0.43     5.01     0  02:49        0.43
  WS02003072           JUNCTION     0.31     0.50     4.87     0  02:49        0.50
  WS02003073           JUNCTION     0.18     0.30     4.36     0  02:48        0.30
  WS02004401           JUNCTION     0.59     0.87     6.87     0  02:45        0.87
  WS02004402           JUNCTION     0.62     0.90     6.86     0  02:44        0.90
  WS02004403           JUNCTION     0.64     0.92     6.85     0  02:44        0.92
  WS02004404           JUNCTION     0.71     1.04     6.89     0  02:44        0.99
  WS02004405           JUNCTION     0.70     0.97     6.82     0  02:44        0.97
  WS02004406           JUNCTION     0.71     0.96     6.79     0  02:45        0.96
  WS02004407           JUNCTION     0.17     0.30     6.61     0  02:44        0.30
  WS02004409           JUNCTION     0.38     0.67     6.44     0  02:46        0.67
  WS02004410           JUNCTION     0.41     0.68     6.40     0  02:46        0.68
  WS02004411           JUNCTION     0.43     0.69     6.37     0  02:46        0.69
  WS02004412           JUNCTION     0.45     0.70     6.34     0  02:47        0.70
  WS02004413           JUNCTION     0.60     0.86     6.33     0  02:47        0.86
  WS02006109           JUNCTION     0.66     1.03     7.65     0  02:46        1.02
  WS02006110           JUNCTION     0.66     0.97     7.55     0  02:38        0.96
  WS02006111           JUNCTION     0.18     0.29     6.99     0  02:43        0.29
  WS02006112           JUNCTION     0.75     1.08     6.96     0  02:42        1.08
  WS02006113           JUNCTION     0.27     0.46     7.35     0  02:40        0.45
  WS02006115           JUNCTION     0.48     0.77     6.91     0  02:43        0.77
  WS02006116           JUNCTION     0.56     0.85     6.89     0  02:43        0.85
  WS02006228           JUNCTION     0.66     1.10     7.75     0  02:46        1.07
  WS02006229           JUNCTION     0.63     1.11     7.80     0  02:46        1.06
  WS02006230           JUNCTION     0.64     1.24     7.98     0  02:46        1.15
  WS02006231           JUNCTION     0.44     1.69     8.82     0  02:44        1.21
  WS02006232           JUNCTION     0.58     1.83     8.87     0  02:44        1.64
  WS02006234           JUNCTION     0.52     1.96     9.12     0  02:06        1.96
  WS02006235           JUNCTION     0.56     2.00     9.16     0  02:06        2.00
  WS02006238           JUNCTION     0.59     2.15     9.29     0  02:06        2.15
  WS02006239           JUNCTION     0.55     2.03     9.24     0  02:00        2.03
  WS02006240           JUNCTION     0.51     2.10     9.39     0  02:06        2.10
  WS02006242           JUNCTION     0.58     1.55     8.82     0  01:44        1.55
  WS02006243           JUNCTION     0.50     1.48     8.90     0  01:48        1.48
  WS02006245           JUNCTION     0.50     1.46     8.95     0  02:54        1.45
  WS02006247           JUNCTION     0.51     1.47     8.97     0  01:46        1.36
  WS02006248           JUNCTION     0.48     1.10     8.69     0  01:45        1.10
  WS02006249           JUNCTION     0.50     1.09     8.69     0  01:46        1.09
  WS02006251           JUNCTION     0.50     1.30     8.97     0  01:47        1.13
  WS02006252           JUNCTION     0.32     1.50     9.74     0  00:00        0.69
  WS02006256           JUNCTION     1.10     2.35     9.28     0  00:00        2.35
  WSF200               JUNCTION     0.16     0.29     5.52     0  02:47        0.29
  YS02001580           JUNCTION     0.10     1.05     9.59     0  01:48        0.77
  YS02001583           JUNCTION     0.14     1.14     9.64     0  01:48        0.82
  YS02001586           JUNCTION     0.22     1.13     9.30     0  01:47        1.13
  YS02001590           JUNCTION     0.33     1.40     9.26     0  01:48        1.37
  YS02001593           JUNCTION     0.26     1.35     9.21     0  01:48        1.29
  YS02001596           JUNCTION     0.36     1.70     9.11     0  01:48        1.67
  YS02001600           JUNCTION     0.44     1.87     9.00     0  01:48        1.86
  YS02001601           JUNCTION     0.63     2.06     8.90     0  01:47        2.06
  YS02001602           JUNCTION     0.53     1.87     8.77     0  01:48        1.87
  YS02001605           JUNCTION     0.49     1.78     8.68     0  01:48        1.77
  YS02001607           JUNCTION     0.46     1.65     8.49     0  01:54        1.64
  YS02001610           JUNCTION     0.50     1.68     8.48     0  01:48        1.68
  YS02001613           JUNCTION     0.46     1.67     8.51     0  01:48        1.65
  YS02001616           JUNCTION     0.40     1.61     8.52     0  01:48        1.58
  YS02001619           JUNCTION     0.37     1.61     8.54     0  01:48        1.57
  YS02001622           JUNCTION     0.36     1.62     8.52     0  01:48        1.55
  YS02001625           JUNCTION     0.61     1.78     8.38     0  01:48        1.78
  YS02001629           JUNCTION     0.49     1.85     8.40     0  01:48        1.85
  YS02001633           JUNCTION     0.56     2.03     8.49     0  01:50        1.97
  YS02001641           JUNCTION     0.52     1.97     8.40     0  01:51        1.94
  YS02001644           JUNCTION     0.51     1.92     8.35     0  01:51        1.92
  YS02001647           JUNCTION     0.29     1.86     8.47     0  01:51        1.73
  YS02001649           JUNCTION     0.32     2.05     8.44     0  01:51        1.99
  YS02001652           JUNCTION     0.20     2.15     8.75     0  01:52        2.15
  YS02001655           JUNCTION     0.14     2.20     9.05     0  01:50        2.20
  YS02001658           JUNCTION     0.10     1.90     9.04     0  01:51        1.79
  YS02001661           JUNCTION     0.14     0.91     8.32     0  01:52        0.85
  YS02001664           JUNCTION     0.06     0.33     8.25     0  01:53        0.33
  YS02001745           JUNCTION     0.06     0.64     8.15     0  01:53        0.59
  YS02001748           JUNCTION     0.09     1.13     8.20     0  01:52        1.07
  YS02001751           JUNCTION     0.10     2.13     9.00     0  01:51        1.25
  YS02001754           JUNCTION     0.15     1.75     8.36     0  01:51        1.50
  YS02001757           JUNCTION     0.32     1.87     8.13     0  01:52        1.81
  YS02001759           JUNCTION     0.26     1.83     8.19     0  01:52        1.77
  YS02001762           JUNCTION     0.25     1.82     8.22     0  01:52        1.75
  YS02001765           JUNCTION     0.23     1.80     8.25     0  01:50        1.72
  YS02001767           JUNCTION     0.22     1.83     8.32     0  01:50        1.71
  YS02001770           JUNCTION     0.24     1.95     8.44     0  01:50        1.75
  YS02001774           JUNCTION     0.30     1.97     8.39     0  01:50        1.82
  YS02001779           JUNCTION     0.13     1.68     8.37     0  01:50        1.56
  YS02001783           JUNCTION     0.28     1.61     7.75     0  01:50        1.61
  YS02001784           JUNCTION     0.29     1.33     7.40     0  01:50        1.33
  YS02001786           JUNCTION     0.25     0.99     7.02     0  01:50        0.86
  YS02001788           JUNCTION     0.18     0.62     6.59     0  01:52        0.62
  YS02001790           JUNCTION     0.21     0.72     6.37     0  01:52        0.71
  YS02001791           JUNCTION     0.13     0.43     5.90     0  01:54        0.42
  YS02001793           JUNCTION     0.08     0.25     5.09     0  01:53        0.25
  YS02001882           JUNCTION     0.35     1.83     8.55     0  01:48        1.83
  YS02001884           JUNCTION     0.43     1.93     8.55     0  01:48        1.86
  YS02001887           JUNCTION     0.51     1.94     8.47     0  01:48        1.86
  YS02001890           JUNCTION     0.54     1.81     8.32     0  01:48        1.81
  YS02001895           JUNCTION     0.32     1.75     8.50     0  01:48        1.56
  YS02001898           JUNCTION     0.33     1.74     8.48     0  01:48        1.57
  YS02001901           JUNCTION     0.43     1.79     8.40     0  01:48        1.67
  YS02001904           JUNCTION     0.41     1.64     8.27     0  01:49        1.63
  YS02001907           JUNCTION     0.72     1.96     8.25     0  01:49        1.96
  YS02001910           JUNCTION     0.52     2.01     8.51     0  01:50        1.85
  YS02001915           JUNCTION     0.35     1.96     8.68     0  01:50        1.70
  YS02001918           JUNCTION     0.19     1.81     8.88     0  01:50        1.40
  YS02001920           JUNCTION     0.27     2.10     9.10     0  01:50        1.49
  YS02001923           JUNCTION     0.14     2.03     9.29     0  01:50        1.28
  YS02001926           JUNCTION     0.18     1.90     9.35     0  01:50        1.16
  YS02001929           JUNCTION     0.10     1.78     9.47     0  01:50        0.99
  YS02006553           JUNCTION     0.72     2.05     8.33     0  01:50        2.03
  YS02006556           JUNCTION     0.69     2.12     8.43     0  01:50        2.10
  YS02006558           JUNCTION     0.73     2.22     8.48     0  01:50        2.22
  YS02006561           JUNCTION     0.17     1.33     7.99     0  01:50        1.33
  YS02163301           JUNCTION     0.51     1.93     8.45     0  01:50        1.88
  YS02163601           JUNCTION     0.58     2.06     8.46     0  01:51        2.00
  YS02164001           JUNCTION     0.51     1.98     8.44     0  01:51        1.92
  CC-1                 OUTFALL      0.00     0.00     0.00     0  00:00        0.00
  CC-2                 OUTFALL      0.00     0.00     0.00     0  00:00        0.00
  JK-1                 OUTFALL      0.00     0.00     0.00     0  00:00        0.00
  JK-2                 OUTFALL      0.00     0.00     0.00     0  00:00        0.00
  WSC                  OUTFALL      0.18     0.30     0.97     0  02:48        0.30
  CC-storage           STORAGE      0.13     0.80     6.30     0  00:00        0.76
  JK-storage           STORAGE      0.02     2.99     3.79     0  00:00        0.68
  
  
  *******************
  Node Inflow Summary
  *******************
  
  -------------------------------------------------------------------------------------------------
                                  Maximum  Maximum                  Lateral       Total        Flow
                                  Lateral    Total  Time of Max      Inflow      Inflow     Balance
                                   Inflow   Inflow   Occurrence      Volume      Volume       Error
  Node                 Type           LPS      LPS  days hr:min    10^6 ltr    10^6 ltr     Percent
  -------------------------------------------------------------------------------------------------
  WS02003060           JUNCTION     16.53   552.82     0  02:48       0.471        4.86       0.050
  WS02003066           JUNCTION      0.00   534.52     0  02:47           0        4.39       0.036
  WS02003067           JUNCTION      0.00   534.16     0  02:47           0        4.39       0.098
  WS02003069           JUNCTION      0.32   551.66     0  02:48     0.00912        4.86       0.094
  WS02003072           JUNCTION      0.00   550.16     0  02:49           0        4.86       0.165
  WS02003073           JUNCTION      1.82   551.34     0  02:47      0.0519         4.9       0.130
  WS02004401           JUNCTION      0.00   537.74     0  02:41           0         4.5       0.238
  WS02004402           JUNCTION      0.00   540.52     0  02:45           0        4.48       0.240
  WS02004403           JUNCTION      0.00   548.36     0  02:45           0        4.47       0.234
  WS02004404           JUNCTION      0.16   561.79     0  02:43     0.00462        4.47       0.150
  WS02004405           JUNCTION      0.04   605.20     0  02:42     0.00109        4.46       0.233
  WS02004406           JUNCTION      0.00   550.81     0  02:45           0        4.45       0.484
  WS02004407           JUNCTION      0.00   537.01     0  02:44           0        4.43       0.029
  WS02004409           JUNCTION      0.00   536.16     0  02:44           0        4.43       0.070
  WS02004410           JUNCTION      0.00   535.56     0  02:44           0        4.43       0.113
  WS02004411           JUNCTION      0.00   535.26     0  02:46           0        4.42       0.138
  WS02004412           JUNCTION      0.00   534.76     0  02:47           0        4.42       0.180
  WS02004413           JUNCTION      0.00   535.75     0  02:47           0        4.41       0.330
  WS02006109           JUNCTION      1.23   545.87     0  02:40      0.0351        4.54       0.156
  WS02006110           JUNCTION      0.00   546.13     0  02:40           0        4.54       0.158
  WS02006111           JUNCTION      0.00   565.00     0  02:40           0        4.53       0.031
  WS02006112           JUNCTION      0.00   543.01     0  02:43           0        4.53       0.466
  WS02006113           JUNCTION      0.00   553.83     0  02:46           0        4.53       0.041
  WS02006115           JUNCTION      0.00   543.57     0  02:43           0         4.5       0.167
  WS02006116           JUNCTION      0.00   539.06     0  02:43           0         4.5       0.044
  WS02006228           JUNCTION      0.00   544.20     0  02:40           0        4.51       0.061
  WS02006229           JUNCTION      0.00   543.82     0  02:40           0        4.52       0.158
  WS02006230           JUNCTION     10.28   575.06     0  02:46       0.293        4.52       0.105
  WS02006231           JUNCTION      0.00   565.27     0  03:03           0        4.23      -0.046
  WS02006232           JUNCTION      0.00   561.95     0  03:03           0        4.24       0.284
  WS02006234           JUNCTION      0.00   550.05     0  02:36           0        4.22      -0.502
  WS02006235           JUNCTION      0.00   549.74     0  01:38           0        4.39       0.170
  WS02006238           JUNCTION      0.00   427.12     0  03:12           0        3.32      -0.395
  WS02006239           JUNCTION      0.00   423.47     0  03:12           0        3.17      -0.614
  WS02006240           JUNCTION      0.00   418.60     0  03:13           0        3.12      -0.307
  WS02006242           JUNCTION      0.00   420.59     0  03:13           0        3.11      -0.094
  WS02006243           JUNCTION      0.00   421.74     0  03:13           0        3.11      -0.072
  WS02006245           JUNCTION      0.00   504.33     0  02:53           0        3.15       1.090
  WS02006247           JUNCTION      0.00   493.78     0  01:46           0        3.14      -0.240
  WS02006248           JUNCTION      0.00   568.21     0  01:45           0        3.15       0.153
  WS02006249           JUNCTION      0.00   519.66     0  01:45           0        3.29       0.805
  WS02006251           JUNCTION      0.08   427.57     0  01:45     0.00219         3.3       0.062
  WS02006252           JUNCTION      0.00   400.00     0  00:00           0        3.28      -0.262
  WS02006256           JUNCTION      0.00   300.00     0  00:00           0        1.48     -14.500
  WSF200               JUNCTION      0.00   534.82     0  02:47           0        4.39       0.013
  YS02001580           JUNCTION      0.00   169.38     0  01:48           0     0.00441      -3.194
  YS02001583           JUNCTION      0.00   266.16     0  01:48           0      0.0147     -10.654
  YS02001586           JUNCTION    401.73   401.80     0  01:54        1.08         1.1       0.154
  YS02001590           JUNCTION      0.00   317.83     0  01:57           0        1.03      -0.034
  YS02001593           JUNCTION      0.00   317.79     0  01:57           0        1.03       0.022
  YS02001596           JUNCTION      0.00   317.83     0  01:57           0        1.03       0.007
  YS02001600           JUNCTION      0.00   317.81     0  01:57           0        1.03       0.019
  YS02001601           JUNCTION    762.52  1079.97     0  01:52        1.54        2.58       0.040
  YS02001602           JUNCTION      0.00   576.13     0  01:47           0        1.94       0.028
  YS02001605           JUNCTION      0.00   576.07     0  01:47           0        1.89       0.032
  YS02001607           JUNCTION      0.00   575.97     0  01:47           0        1.89       0.102
  YS02001610           JUNCTION      0.00   550.38     0  01:48           0        1.89       0.128
  YS02001613           JUNCTION      0.00   555.75     0  01:48           0        1.75       0.108
  YS02001616           JUNCTION      0.00   567.83     0  01:48           0        1.75       0.027
  YS02001619           JUNCTION    706.64   948.72     0  01:48        1.72        3.47      -0.005
  YS02001622           JUNCTION      0.00   952.29     0  01:48           0        3.47      -0.003
  YS02001625           JUNCTION      0.00   952.21     0  01:48           0        3.47       0.261
  YS02001629           JUNCTION      0.00   948.08     0  01:48           0        3.22       0.025
  YS02001633           JUNCTION    565.14  1413.70     0  01:49        1.12        4.33       0.083
  YS02001641           JUNCTION      0.00  1411.80     0  01:49           0        4.33       0.067
  YS02001644           JUNCTION    507.85  1875.17     0  01:49       0.964        5.29       0.063
  YS02001647           JUNCTION      0.00  1874.40     0  01:49           0        5.28       0.006
  YS02001649           JUNCTION      0.00  2126.11     0  01:50           0        6.15       0.007
  YS02001652           JUNCTION      0.00   591.07     0  01:53           0       0.867      -0.147
  YS02001655           JUNCTION      0.15   591.58     0  01:53     0.00439       0.868       0.054
  YS02001658           JUNCTION      0.00   633.19     0  01:56           0       0.863      -0.046
  YS02001661           JUNCTION      0.00   575.74     0  01:53           0       0.864       0.041
  YS02001664           JUNCTION    491.88   491.88     0  01:51       0.864       0.864      -0.010
  YS02001745           JUNCTION    331.49   331.49     0  01:51       0.534       0.534       0.171
  YS02001748           JUNCTION      0.04   609.08     0  01:54     0.00128       0.536      -0.281
  YS02001751           JUNCTION      0.01   529.71     0  01:55    0.000313       0.543       0.063
  YS02001754           JUNCTION      0.26   416.36     0  01:54     0.00741       0.556      -0.181
  YS02001757           JUNCTION      0.00  3122.37     0  01:53           0        8.58       0.011
  YS02001759           JUNCTION    455.03  1138.22     0  01:50       0.734        1.88      -0.007
  YS02001762           JUNCTION      0.00   677.43     0  01:50           0        1.14       0.011
  YS02001765           JUNCTION      0.00   672.14     0  01:50           0        1.14       0.019
  YS02001767           JUNCTION      0.54   667.93     0  01:50      0.0152        1.14       0.006
  YS02001770           JUNCTION    640.04   661.27     0  01:51        1.13        1.17      -0.020
  YS02001774           JUNCTION      0.00   443.40     0  01:50           0      0.0607       1.991
  YS02001779           JUNCTION      0.01   453.38     0  01:50    0.000142      0.0195      -1.937
  YS02001783           JUNCTION      0.00  1151.73     0  01:51           0        3.24       0.009
  YS02001784           JUNCTION      1.06  1152.66     0  01:50      0.0302        3.27       0.016
  YS02001786           JUNCTION      0.06  1152.94     0  01:51      0.0016        3.27       0.021
  YS02001788           JUNCTION      0.07  1156.68     0  01:50     0.00202        3.27       0.009
  YS02001790           JUNCTION      0.15  1163.90     0  01:54     0.00442        3.27       0.005
  YS02001791           JUNCTION      0.00  1279.34     0  01:53           0        3.27       0.004
  YS02001793           JUNCTION      0.00  1235.07     0  01:53           0        3.27      -0.003
  YS02001882           JUNCTION      0.00   113.43     0  01:48           0      0.0125       5.444
  YS02001884           JUNCTION      0.00   142.61     0  01:48           0       0.048       5.402
  YS02001887           JUNCTION    510.90   532.86     0  01:48        0.78       0.813       0.559
  YS02001890           JUNCTION      0.00   544.13     0  01:48           0       0.772       0.682
  YS02001895           JUNCTION      0.00   554.91     0  01:48           0       0.766       0.215
  YS02001898           JUNCTION      0.00   533.24     0  01:49           0       0.764       0.030
  YS02001901           JUNCTION      0.00   542.68     0  01:49           0       0.766       0.451
  YS02001904           JUNCTION      0.00   545.12     0  01:49           0       0.771       0.375
  YS02001907           JUNCTION      0.00  1480.12     0  01:51           0        2.49       0.733
  YS02001910           JUNCTION      0.00   988.50     0  01:51           0        1.72       0.424
  YS02001915           JUNCTION    553.90   988.50     0  01:51        1.08        1.77       0.094
  YS02001918           JUNCTION      0.00   543.42     0  01:49           0        0.73       0.030
  YS02001920           JUNCTION      2.87   491.32     0  01:49      0.0818       0.707       0.122
  YS02001923           JUNCTION      0.04   591.18     0  01:49     0.00107       0.608      -0.101
  YS02001926           JUNCTION      0.05   891.99     0  01:50     0.00149       0.587      -0.043
  YS02001929           JUNCTION    263.11   720.97     0  01:50       0.566       0.571      -0.177
  YS02006553           JUNCTION      0.00   790.86     0  02:03           0        2.15       0.557
  YS02006556           JUNCTION      0.00   790.87     0  02:03           0        2.16       0.385
  YS02006558           JUNCTION    655.01  1168.20     0  01:49        1.14        3.27       0.105
  YS02006561           JUNCTION      0.00  1166.74     0  01:49           0        3.24       0.001
  YS02163301           JUNCTION      0.00   926.11     0  02:05           0        3.22       0.051
  YS02163601           JUNCTION      0.11  1413.34     0  01:49     0.00313        4.33       0.116
  YS02164001           JUNCTION      0.00  1413.29     0  01:49           0        4.33       0.058
  CC-1                 OUTFALL       0.00   683.00     0  00:00           0        3.76       0.000
  CC-2                 OUTFALL       0.00   683.00     0  00:00           0        3.76       0.000
  JK-1                 OUTFALL       0.00  1000.00     0  00:00           0        1.14       0.000
  JK-2                 OUTFALL       0.00  1000.00     0  00:00           0        1.14       0.000
  WSC                  OUTFALL       0.00   551.03     0  02:48           0         4.9       0.000
  CC-storage           STORAGE       0.00  3122.76     0  01:53           0        10.8      -0.401
  JK-storage           STORAGE       0.00  1281.55     0  01:53           0        3.42      -8.436
  
  
  **********************
  Node Surcharge Summary
  **********************
  
  Surcharging occurs when water rises above the top of the highest conduit.
  ---------------------------------------------------------------------
                                               Max. Height   Min. Depth
                                   Hours       Above Crown    Below Rim
  Node                 Type      Surcharged         Meters       Meters
  ---------------------------------------------------------------------
  WS02004404           JUNCTION        0.01          0.038        2.742
  WS02006109           JUNCTION        1.60          0.215        1.605
  WS02006110           JUNCTION        0.10          0.059        1.791
  WS02006112           JUNCTION        1.02          0.082        1.598
  WS02006228           JUNCTION        1.55          0.271        1.929
  WS02006229           JUNCTION        1.62          0.311        2.139
  WS02006230           JUNCTION        0.09          0.157        1.413
  WS02006231           JUNCTION        0.89          0.983        0.547
  WS02006232           JUNCTION        1.75          1.132        0.348
  WS02006234           JUNCTION        1.24          1.240        0.000
  WS02006235           JUNCTION        1.50          1.290        0.000
  WS02006238           JUNCTION        1.63          1.430        0.000
  WS02006239           JUNCTION        1.49          1.290        0.000
  WS02006240           JUNCTION        1.48          1.390        0.000
  WS02006242           JUNCTION        1.64          0.820        0.000
  WS02006243           JUNCTION        1.47          0.770        0.000
  WS02006245           JUNCTION        1.45          0.750        0.100
  WS02006247           JUNCTION        1.49          0.760        0.000
  WS02006248           JUNCTION        1.42          0.380        0.000
  WS02006249           JUNCTION        1.45          0.390        0.000
  WS02006251           JUNCTION        1.12          0.273        0.907
  WS02006252           JUNCTION        2.28          1.100        0.000
  WS02006256           JUNCTION        6.78          2.050        0.000
  YS02001580           JUNCTION        0.38          0.450        0.000
  YS02001583           JUNCTION        0.38          0.500        0.000
  YS02001586           JUNCTION        0.51          0.510        0.000
  YS02001590           JUNCTION        0.58          0.748        0.002
  YS02001593           JUNCTION        0.58          0.728        0.112
  YS02001596           JUNCTION        0.67          0.966        0.104
  YS02001600           JUNCTION        0.81          1.190        0.000
  YS02001601           JUNCTION        1.19          1.440        0.000
  YS02001602           JUNCTION        1.05          1.270        0.000
  YS02001605           JUNCTION        1.00          1.180        0.000
  YS02001607           JUNCTION        0.51          0.646        0.034
  YS02001610           JUNCTION        0.54          0.680        0.000
  YS02001613           JUNCTION        0.50          0.672        0.028
  YS02001616           JUNCTION        0.46          0.610        0.000
  YS02001619           JUNCTION        0.44          0.610        0.000
  YS02001622           JUNCTION        0.43          0.620        0.000
  YS02001625           JUNCTION        0.62          0.780        0.000
  YS02001629           JUNCTION        0.33          0.470        0.000
  YS02001633           JUNCTION        0.63          1.014        0.046
  YS02001641           JUNCTION        0.52          0.968        0.132
  YS02001644           JUNCTION        0.46          0.920        0.000
  YS02001647           JUNCTION        0.24          0.861        0.039
  YS02001649           JUNCTION        0.27          1.050        0.000
  YS02001652           JUNCTION        0.17          1.120        0.010
  YS02001655           JUNCTION        0.10          1.200        0.000
  YS02001658           JUNCTION        0.03          0.900        0.400
  YS02001748           JUNCTION        0.01          0.047        1.143
  YS02001751           JUNCTION        0.05          1.126        0.074
  YS02001754           JUNCTION        0.11          0.698        0.452
  YS02001757           JUNCTION        0.25          0.871        0.339
  YS02001759           JUNCTION        0.22          0.829        0.381
  YS02001762           JUNCTION        0.20          0.819        0.331
  YS02001765           JUNCTION        0.19          0.796        0.304
  YS02001767           JUNCTION        0.18          0.830        0.200
  YS02001770           JUNCTION        0.17          0.920        0.000
  YS02001774           JUNCTION        0.21          0.970        0.080
  YS02001779           JUNCTION        0.12          0.680        0.000
  YS02001783           JUNCTION        0.39          0.811        0.789
  YS02001784           JUNCTION        0.37          0.533        0.957
  YS02001786           JUNCTION        0.27          0.187        1.243
  YS02001882           JUNCTION        0.34          0.830        0.000
  YS02001884           JUNCTION        0.35          0.870        0.000
  YS02001887           JUNCTION        0.38          0.885        0.065
  YS02001890           JUNCTION        0.39          0.760        0.000
  YS02001895           JUNCTION        0.33          0.750        0.000
  YS02001898           JUNCTION        0.33          0.712        0.028
  YS02001901           JUNCTION        0.37          0.793        0.077
  YS02001904           JUNCTION        0.36          0.643        0.207
  YS02001907           JUNCTION        0.56          0.950        0.000
  YS02001910           JUNCTION        0.42          1.006        0.094
  YS02001915           JUNCTION        0.34          0.964        0.036
  YS02001918           JUNCTION        0.26          0.810        0.000
  YS02001920           JUNCTION        0.27          1.096        0.044
  YS02001923           JUNCTION        0.01          0.820        0.000
  YS02001926           JUNCTION        0.01          0.900        0.000
  YS02001929           JUNCTION        0.01          0.780        0.000
  YS02006553           JUNCTION        0.57          1.050        0.140
  YS02006556           JUNCTION        0.49          1.080        0.270
  YS02006558           JUNCTION        0.48          1.116        0.284
  YS02006561           JUNCTION        0.23          0.534        0.616
  YS02163301           JUNCTION        0.61          0.931        0.099
  YS02163601           JUNCTION        0.65          1.064        0.016
  YS02164001           JUNCTION        0.54          0.982        0.118
  
  
  *********************
  Node Flooding Summary
  *********************
  
  Flooding refers to all water that overflows a node, whether it ponds or not.
  --------------------------------------------------------------------------
                                                             Total   Maximum
                                 Maximum   Time of Max       Flood    Ponded
                        Hours       Rate    Occurrence      Volume     Depth
  Node                 Flooded       LPS   days hr:min    10^6 ltr    Meters
  --------------------------------------------------------------------------
  WS02006234              0.01      3.26      0  02:06       0.000     0.000
  WS02006235              0.01      7.85      0  02:06       0.000     0.000
  WS02006238              0.01      6.22      0  02:06       0.000     0.000
  WS02006239              0.01      4.44      0  02:00       0.000     0.000
  WS02006240              0.01      1.22      0  02:06       0.000     0.000
  WS02006242              0.02    153.25      0  01:44       0.001     0.000
  WS02006243              0.01     10.00      0  02:54       0.000     0.000
  WS02006247              0.01    168.11      0  01:46       0.000     0.000
  WS02006248              0.31    296.41      0  01:45       0.009     0.000
  WS02006249              1.05     78.14      0  02:46       0.111     0.000
  WS02006252              0.01    301.78      0  01:42       0.002     0.000
  WS02006256              1.34    295.47      0  04:20       0.640     0.000
  YS02001580              0.01    114.83      0  01:48       0.001     0.000
  YS02001583              0.01    197.90      0  01:48       0.000     0.000
  YS02001586              0.26    141.21      0  01:48       0.052     0.000
  YS02001600              0.01      2.58      0  01:48       0.000     0.000
  YS02001601              0.44    682.15      0  01:52       0.630     0.000
  YS02001602              0.28     61.96      0  02:03       0.056     0.000
  YS02001605              0.01      5.81      0  01:48       0.000     0.000
  YS02001610              0.24    222.72      0  01:54       0.133     0.000
  YS02001616              0.01    144.06      0  01:48       0.000     0.000
  YS02001619              0.01     81.11      0  01:48       0.000     0.000
  YS02001622              0.01    232.70      0  01:48       0.001     0.000
  YS02001625              0.20    720.08      0  01:53       0.242     0.000
  YS02001629              0.03    346.42      0  01:48       0.003     0.000
  YS02001644              0.01     31.92      0  01:52       0.001     0.000
  YS02001649              0.01     41.03      0  01:51       0.000     0.000
  YS02001655              0.01    221.54      0  01:50       0.000     0.000
  YS02001770              0.01    137.15      0  01:50       0.000     0.000
  YS02001779              0.01    391.13      0  01:50       0.003     0.000
  YS02001882              0.01     29.57      0  01:48       0.000     0.000
  YS02001884              0.01     16.16      0  01:48       0.000     0.000
  YS02001890              0.02    111.13      0  01:49       0.001     0.000
  YS02001895              0.01    155.61      0  01:48       0.000     0.000
  YS02001907              0.21    981.42      0  01:51       0.324     0.000
  YS02001918              0.01    178.56      0  01:50       0.002     0.000
  YS02001923              0.01    278.42      0  01:50       0.001     0.000
  YS02001926              0.01    650.42      0  01:50       0.002     0.000
  YS02001929              0.01    401.89      0  01:50       0.002     0.000
  
  
  **********************
  Storage Volume Summary
  **********************
  
  ------------------------------------------------------------------------------------------------
                         Average    Avg   Evap  Exfil     Maximum    Max    Time of Max    Maximum
                          Volume   Pcnt   Pcnt   Pcnt      Volume   Pcnt     Occurrence    Outflow
  Storage Unit           1000 m³   Full   Loss   Loss     1000 m³   Full    days hr:min        LPS
  ------------------------------------------------------------------------------------------------
  CC-storage               0.355    5.5    0.0    0.0       2.229   34.8       0  00:00    1783.53
  JK-storage               0.001    0.4    0.0    0.0       0.150   51.6       0  00:00    2300.00
  
  
  ***********************
  Outfall Loading Summary
  ***********************
  
  -----------------------------------------------------------
                         Flow       Avg       Max       Total
                         Freq      Flow      Flow      Volume
  Outfall Node           Pcnt       LPS       LPS    10^6 ltr
  -----------------------------------------------------------
  CC-1                  36.90    683.00    683.00       3.757
  CC-2                  36.90    683.00    683.00       3.757
  JK-1                   8.70    997.80   1000.00       1.140
  JK-2                   8.70    997.80   1000.00       1.140
  WSC                   99.94    246.50    551.03       4.897
  -----------------------------------------------------------
  System                38.23   3608.11   3896.84      14.692
  
  
  ********************
  Link Flow Summary
  ********************
  
  -----------------------------------------------------------------------------
                                 Maximum  Time of Max   Maximum    Max/    Max/
                                  |Flow|   Occurrence   |Veloc|    Full    Full
  Link                 Type          LPS  days hr:min     m/sec    Flow   Depth
  -----------------------------------------------------------------------------
  1                    CONDUIT    551.03     0  02:48      2.82    0.19    0.30
  WS02003060WS02003069 CONDUIT    551.34     0  02:48      1.64    0.22    0.34
  WS02003066WSF200     CONDUIT    534.82     0  02:47      2.85    0.09    0.22
  WS02003067WS02003066 CONDUIT    534.52     0  02:47      1.20    0.17    0.42
  WS02003069WS02003072 CONDUIT    550.16     0  02:49      1.37    0.26    0.39
  WS02003072WS02003073 CONDUIT    549.52     0  02:47      1.43    1.19    0.37
  WS02004401WS02004402 CONDUIT    540.52     0  02:45      1.22    0.65    0.89
  WS02004402WS02004403 CONDUIT    548.36     0  02:45      1.24    0.79    0.91
  WS02004403WS02004404 CONDUIT    561.63     0  02:43      1.24    0.41    0.96
  WS02004404WS02004405 CONDUIT    605.16     0  02:42      1.45    5.93    0.98
  WS02004405WS02004406 CONDUIT    550.81     0  02:45      1.46    1.09    0.96
  WS02004406WS02004407 CONDUIT    537.01     0  02:44      1.04    0.24    0.63
  WS02004407WS02004409 CONDUIT    536.16     0  02:44      1.59    0.19    0.48
  WS02004409WS02004410 CONDUIT    535.56     0  02:44      1.06    0.69    0.67
  WS02004410WS02004411 CONDUIT    535.26     0  02:46      1.12    0.73    0.68
  WS02004411WS02004412 CONDUIT    534.76     0  02:47      1.22    0.76    0.69
  WS02004412WS02004413 CONDUIT    535.75     0  02:47      1.22    0.36    0.78
  WS02004413WS02003067 CONDUIT    534.16     0  02:47      1.11    0.23    0.59
  WS02006109WS02006110 CONDUIT    546.13     0  02:40      1.09    1.05    1.00
  WS02006110WS02006113 CONDUIT    553.83     0  02:46      1.31    0.50    0.79
  WS02006111WS02006112 CONDUIT    543.01     0  02:43      1.95    0.26    0.67
  WS02006112WS02006115 CONDUIT    543.57     0  02:43      0.82    0.32    0.88
  WS02006113WS02006111 CONDUIT    565.00     0  02:40      2.48    0.68    0.46
  WS02006115WS02006116 CONDUIT    539.06     0  02:43      1.29    0.69    0.78
  WS02006116WS02004401 CONDUIT    537.74     0  02:41      1.21    0.74    0.86
  WS02006228WS02006109 CONDUIT    544.64     0  02:40      1.08    2.38    1.00
  WS02006229WS02006228 CONDUIT    544.20     0  02:40      1.12    1.80    1.00
  WS02006230WS02006229 CONDUIT    543.82     0  02:40      1.41   12.10    1.00
  WS02006231WS02006230 CONDUIT    564.78     0  02:46      1.48    8.57    1.00
  WS02006232WS02006231 CONDUIT    565.27     0  03:03      1.48    1.18    1.00
  WS02006234WS02006232 CONDUIT    561.95     0  03:03      1.46    1.14    1.00
  WS02006235WS02006234 CONDUIT    550.05     0  02:36      1.43    5.80    1.00
  WS02006238WS02006235 CONDUIT    437.21     0  03:22      1.45    0.98    1.00
  WS02006239WS02006238 CONDUIT    427.12     0  03:12      1.11    1.37    1.00
  WS02006240WS02006239 CONDUIT    423.47     0  03:12      1.24    1.33    1.00
  WS02006242WS02006240 CONDUIT    418.60     0  03:13      1.16    1.66    1.00
  WS02006243WS02006242 CONDUIT    420.59     0  03:13      1.43    0.90    1.00
  WS02006245WS02006243 CONDUIT    421.74     0  03:13      1.44    1.25    1.00
  WS02006247WS02006245 CONDUIT    504.33     0  02:53      1.43    4.00    1.00
  WS02006248WS02006247 CONDUIT    493.78     0  01:46      1.44    1.07    1.00
  WS02006249WS02006248 CONDUIT    568.21     0  01:45      1.54    3.11    1.00
  WS02006251WS02006249 CONDUIT    519.66     0  01:45      1.99    1.50    1.00
  WS02006252WS02006251 CONDUIT    406.66     0  03:27     24.79    1.49    1.00
  WS02006256WS02006235 CONDUIT    288.91     0  00:00      4.23    3.06    1.00
  WSF200WS02003060     CONDUIT    536.29     0  02:48      2.06    0.12    0.28
  YS02001580YS02001583 CONDUIT    169.38     0  01:48      0.90    0.66    1.00
  YS02001583YS02001586 CONDUIT    203.91     0  01:48      0.93    0.31    1.00
  YS02001586YS02001590 CONDUIT    317.83     0  01:57      1.28    0.56    1.00
  YS02001590YS02001593 CONDUIT    317.79     0  01:57      1.12    1.99    1.00
  YS02001593YS02001596 CONDUIT    317.83     0  01:57      1.73    0.50    1.00
  YS02001596YS02001600 CONDUIT    317.81     0  01:57      1.19    0.62    1.00
  YS02001600YS02001601 CONDUIT    317.74     0  01:57      1.12    0.55    1.00
  YS02001601YS02001602 CONDUIT    576.13     0  01:47      2.04    2.08    1.00
  YS02001602YS02001605 CONDUIT    576.07     0  01:47      2.04   12.19    1.00
  YS02001605YS02001607 CONDUIT    575.97     0  01:47      2.04    3.16    1.00
  YS02001607YS02001610 CONDUIT    550.38     0  01:48      0.71    0.52    1.00
  YS02001610YS02001613 CONDUIT    555.75     0  01:48      0.71    0.64    1.00
  YS02001613YS02001616 CONDUIT    567.83     0  01:48      0.72    0.49    1.00
  YS02001616YS02001619 CONDUIT    513.68     0  02:13      0.67    0.89    1.00
  YS02001619YS02001622 CONDUIT    952.29     0  01:48      1.27    1.40    1.00
  YS02001622YS02001625 CONDUIT    952.21     0  01:48      1.21    0.51    1.00
  YS02001625YS02001629 CONDUIT    948.08     0  01:48      1.21    0.45    1.00
  YS02001629YS02163301 CONDUIT    926.11     0  02:05      1.18    1.14    1.00
  YS02001633YS02163601 CONDUIT   1413.23     0  01:49      1.80    1.48    1.00
  YS02001641YS02001644 CONDUIT   1412.14     0  01:49      1.80    4.57    1.00
  YS02001644YS02001647 CONDUIT   1874.40     0  01:49      2.39    1.10    1.00
  YS02001647YS02001649 CONDUIT   1858.01     0  01:49      2.39    0.98    1.00
  YS02001649YS02001757 CONDUIT   2127.13     0  01:50      2.71    1.29    1.00
  YS02001652YS02001649 CONDUIT    591.70     0  01:53      0.84    0.29    1.00
  YS02001655YS02001652 CONDUIT    591.07     0  01:53      1.45    0.29    1.00
  YS02001658YS02001655 CONDUIT    591.42     0  01:53      2.05    0.25    1.00
  YS02001661YS02001658 CONDUIT    633.19     0  01:56      2.38    0.25    0.92
  YS02001664YS02001661 CONDUIT    575.74     0  01:53      2.29    0.18    0.59
  YS02001745YS02001748 CONDUIT    609.03     0  01:54      2.27    0.23    0.71
  YS02001748YS02001751 CONDUIT    529.70     0  01:55      1.87    0.27    1.00
  YS02001751YS02001754 CONDUIT    416.10     0  01:54      1.54    0.20    1.00
  YS02001754YS02001757 CONDUIT    417.19     0  01:54      0.53    0.17    1.00
  YS02001757CaochengTiaoxuchi CONDUIT   3122.76     0  01:53      7.00    1.35    0.70
  YS02001759YS02001757 CONDUIT   1143.11     0  01:50      1.46    0.81    1.00
  YS02001762YS02001759 CONDUIT    683.53     0  01:50      0.87    0.79    1.00
  YS02001765YS02001762 CONDUIT    677.43     0  01:50      0.86    0.64    1.00
  YS02001767YS02001765 CONDUIT    672.14     0  01:50      0.86    0.85    1.00
  YS02001770YS02001767 CONDUIT    667.40     0  01:50      0.85    2.64    1.00
  YS02001774YS02001770 CONDUIT    443.40     0  01:50      0.56    0.28    1.00
  YS02001779YS02001774 CONDUIT    453.37     0  01:50      0.59    0.23    1.00
  YS02001783YS02001784 CONDUIT   1151.60     0  01:50      2.29    1.59    1.00
  YS02001784YS02001785 CONDUIT   1152.88     0  01:51      2.29    2.68    1.00
  YS02001786YS02001788 CONDUIT   1156.61     0  01:50      2.50    2.23    0.89
  YS02001788YS02001790 CONDUIT   1163.74     0  01:54      2.71    0.86    0.84
  YS02001790YS02001791 CONDUIT   1279.34     0  01:53      3.42    1.39    0.70
  YS02001791YS02001793 CONDUIT   1235.07     0  01:53      6.34    0.53    0.43
  YS02001793JiankangQianchi CONDUIT   1281.55     0  01:53     23.81    0.10    0.50
  YS02001882YS02001884 CONDUIT    113.43     0  01:48      0.14    0.13    1.00
  YS02001884YS02001887 CONDUIT    142.61     0  01:48      0.18    0.19    1.00
  YS02001887YS02001890 CONDUIT    544.13     0  01:48      0.69    0.93    1.00
  YS02001890YS02001895 CONDUIT    554.91     0  01:48      0.71    0.26    1.00
  YS02001895YS02001898 CONDUIT    533.24     0  01:49      0.68    0.93    1.00
  YS02001898YS02001901 CONDUIT    542.68     0  01:49      0.69    0.35    1.00
  YS02001901YS02001904 CONDUIT    545.12     0  01:49      0.69    0.85    1.00
  YS02001904YS02001907 CONDUIT    548.19     0  01:49      0.70    0.19    1.00
  YS02001907YS02006553 CONDUIT    790.86     0  02:03      0.88    0.93    1.00
  YS02001910YS02001907 CONDUIT    988.76     0  01:51      1.26    0.56    1.00
  YS02001915YS02001910 CONDUIT    988.50     0  01:51      1.26    0.49    1.00
  YS02001918YS02001915 CONDUIT    543.42     0  01:49      0.74    0.30    1.00
  YS02001920YS02001918 CONDUIT    488.45     0  01:49      0.64    0.47    1.00
  YS02001923YS02001920 CONDUIT    494.73     0  01:49      0.75    0.22    1.00
  YS02001926YS02001923 CONDUIT    684.63     0  01:50      1.12    0.98    1.00
  YS02001929YS02001926 CONDUIT    527.64     0  01:50      1.17    0.25    1.00
  YS02006553YS02006556 CONDUIT    790.87     0  02:03      1.01    0.68    1.00
  YS02006556YS02006558 CONDUIT    791.33     0  02:03      1.01    0.62    1.00
  YS02006558YS02006561 CONDUIT   1166.74     0  01:49      4.13    2.58    1.00
  YS02006561YS02001783 CONDUIT   1151.73     0  01:51      2.29    0.60    1.00
  YS02163301YS02001633 CONDUIT    926.54     0  02:05      1.18    0.87    1.00
  YS02163601YS02164001 CONDUIT   1413.29     0  01:49      1.80    1.25    1.00
  YS02164001YS02001641 CONDUIT   1411.80     0  01:49      1.80    1.93    1.00
  CC-R1                PUMP       683.00     0  00:00              1.00
  CC-R2                PUMP       683.00     0  00:00              1.00
  CC-S1                PUMP       200.00     0  00:00              1.00
  CC-S2                PUMP       200.00     0  00:00              1.00
  JK-R1                PUMP      1000.00     0  00:00              1.00
  JK-R2                PUMP      1000.00     0  00:00              1.00
  JK-S                 PUMP       300.00     0  00:00              1.00
  
  
  ***************************
  Flow Classification Summary
  ***************************
  
  -------------------------------------------------------------------------------------
                      Adjusted    ---------- Fraction of Time in Flow Class ---------- 
                       /Actual         Up    Down  Sub   Sup   Up    Down  Norm  Inlet 
  Conduit               Length    Dry  Dry   Dry   Crit  Crit  Crit  Crit  Ltd   Ctrl  
  -------------------------------------------------------------------------------------
  1                       1.00   0.00  0.00  0.00  0.00  1.00  0.00  0.00  0.30  0.00
  WS02003060WS02003069    1.00   0.00  0.00  0.00  0.98  0.02  0.00  0.00  0.76  0.00
  WS02003066WSF200        1.00   0.05  0.00  0.00  0.00  0.95  0.00  0.00  0.87  0.00
  WS02003067WS02003066    1.00   0.05  0.00  0.00  0.95  0.00  0.00  0.00  0.00  0.00
  WS02003069WS02003072    1.00   0.00  0.00  0.00  0.99  0.01  0.00  0.00  0.78  0.00
  WS02003072WS02003073    1.00   0.00  0.00  0.00  0.00  0.00  0.00  1.00  0.00  0.00
  WS02004401WS02004402    1.00   0.02  0.00  0.00  0.98  0.00  0.00  0.00  0.00  0.00
  WS02004402WS02004403    1.00   0.02  0.00  0.00  0.98  0.00  0.00  0.00  0.00  0.00
  WS02004403WS02004404    1.00   0.00  0.03  0.00  0.97  0.00  0.00  0.00  0.00  0.00
  WS02004404WS02004405    1.00   0.00  0.00  0.00  1.00  0.00  0.00  0.00  0.02  0.00
  WS02004405WS02004406    1.00   0.00  0.00  0.00  1.00  0.00  0.00  0.00  0.00  0.00
  WS02004406WS02004407    1.00   0.00  0.03  0.00  0.97  0.00  0.00  0.00  0.00  0.00
  WS02004407WS02004409    1.00   0.03  0.00  0.00  0.95  0.01  0.00  0.00  0.96  0.00
  WS02004409WS02004410    1.00   0.03  0.00  0.00  0.96  0.00  0.00  0.00  0.00  0.00
  WS02004410WS02004411    1.00   0.04  0.00  0.00  0.96  0.00  0.00  0.00  0.00  0.00
  WS02004411WS02004412    1.00   0.04  0.00  0.00  0.96  0.00  0.00  0.00  0.00  0.00
  WS02004412WS02004413    1.00   0.04  0.00  0.00  0.96  0.00  0.00  0.00  0.00  0.00
  WS02004413WS02003067    1.00   0.04  0.01  0.00  0.00  0.00  0.95  0.00  0.00  0.00
  WS02006109WS02006110    1.00   0.00  0.01  0.00  0.98  0.00  0.01  0.00  0.00  0.00
  WS02006110WS02006113    1.00   0.01  0.01  0.00  0.98  0.00  0.00  0.00  0.00  0.00
  WS02006111WS02006112    1.00   0.02  0.00  0.00  0.98  0.00  0.00  0.00  0.98  0.00
  WS02006112WS02006115    1.00   0.02  0.00  0.00  0.97  0.00  0.00  0.00  0.00  0.00
  WS02006113WS02006111    1.00   0.02  0.00  0.00  0.00  0.98  0.00  0.00  0.13  0.00
  WS02006115WS02006116    1.00   0.02  0.00  0.00  0.97  0.00  0.00  0.01  0.00  0.00
  WS02006116WS02004401    1.00   0.02  0.00  0.00  0.98  0.00  0.00  0.00  0.00  0.00
  WS02006228WS02006109    1.00   0.00  0.00  0.00  1.00  0.00  0.00  0.00  0.01  0.00
  WS02006229WS02006228    1.00   0.00  0.00  0.00  0.99  0.00  0.00  0.01  0.00  0.00
  WS02006230WS02006229    1.00   0.00  0.00  0.00  0.99  0.00  0.00  0.01  0.03  0.00
  WS02006231WS02006230    1.00   0.00  0.00  0.00  0.24  0.00  0.76  0.00  0.00  0.00
  WS02006232WS02006231    1.00   0.00  0.00  0.00  0.99  0.00  0.01  0.00  0.00  0.00
  WS02006234WS02006232    1.00   0.00  0.00  0.00  1.00  0.00  0.00  0.00  0.02  0.00
  WS02006235WS02006234    1.00   0.00  0.00  0.00  0.94  0.00  0.06  0.00  0.00  0.00
  WS02006238WS02006235    1.00   0.00  0.00  0.00  1.00  0.00  0.00  0.00  0.01  0.00
  WS02006239WS02006238    1.00   0.00  0.00  0.00  1.00  0.00  0.00  0.00  0.07  0.00
  WS02006240WS02006239    1.00   0.00  0.00  0.00  0.90  0.00  0.00  0.09  0.22  0.00
  WS02006242WS02006240    1.00   0.00  0.00  0.00  0.92  0.00  0.07  0.00  0.00  0.00
  WS02006243WS02006242    1.00   0.00  0.00  0.00  0.98  0.00  0.00  0.02  0.60  0.00
  WS02006245WS02006243    1.00   0.00  0.00  0.00  0.69  0.00  0.00  0.31  0.01  0.00
  WS02006247WS02006245    1.00   0.00  0.00  0.00  0.98  0.00  0.00  0.02  0.00  0.00
  WS02006248WS02006247    1.00   0.00  0.00  0.00  0.98  0.00  0.00  0.02  0.34  0.00
  WS02006249WS02006248    1.00   0.00  0.00  0.00  0.42  0.00  0.58  0.00  0.00  0.00
  WS02006251WS02006249    1.00   0.00  0.00  0.00  0.99  0.01  0.00  0.00  0.60  0.00
  WS02006252WS02006251    1.00   0.00  0.59  0.00  0.14  0.00  0.27  0.00  0.00  0.00
  WS02006256WS02006235    1.00   0.00  0.00  0.00  0.96  0.04  0.00  0.00  0.01  0.00
  WSF200WS02003060        1.00   0.00  0.05  0.00  0.27  0.68  0.00  0.00  0.68  0.00
  YS02001580YS02001583    1.00   0.23  0.61  0.00  0.17  0.00  0.00  0.00  0.70  0.00
  YS02001583YS02001586    1.00   0.43  0.34  0.00  0.22  0.00  0.00  0.00  0.70  0.00
  YS02001586YS02001590    1.00   0.13  0.00  0.00  0.39  0.04  0.00  0.43  0.36  0.00
  YS02001590YS02001593    1.00   0.13  0.01  0.00  0.09  0.00  0.78  0.00  0.00  0.00
  YS02001593YS02001596    1.00   0.14  0.00  0.00  0.10  0.01  0.00  0.75  0.02  0.00
  YS02001596YS02001600    1.00   0.14  0.00  0.00  0.18  0.01  0.00  0.67  0.06  0.00
  YS02001600YS02001601    1.00   0.13  0.01  0.00  0.86  0.00  0.00  0.00  0.62  0.00
  YS02001601YS02001602    1.00   0.13  0.01  0.00  0.86  0.00  0.00  0.00  0.00  0.00
  YS02001602YS02001605    1.00   0.14  0.00  0.00  0.86  0.00  0.00  0.00  0.00  0.00
  YS02001605YS02001607    1.00   0.14  0.00  0.00  0.86  0.00  0.00  0.00  0.00  0.00
  YS02001607YS02001610    1.00   0.13  0.01  0.00  0.86  0.00  0.00  0.00  0.02  0.00
  YS02001610YS02001613    1.00   0.13  0.00  0.00  0.87  0.00  0.00  0.00  0.01  0.00
  YS02001613YS02001616    1.00   0.13  0.00  0.00  0.87  0.00  0.00  0.00  0.01  0.00
  YS02001616YS02001619    1.00   0.13  0.00  0.00  0.87  0.00  0.00  0.00  0.00  0.00
  YS02001619YS02001622    1.00   0.13  0.00  0.00  0.87  0.00  0.00  0.00  0.29  0.00
  YS02001622YS02001625    1.00   0.13  0.00  0.00  0.87  0.00  0.00  0.00  0.05  0.00
  YS02001625YS02001629    1.00   0.13  0.06  0.00  0.13  0.00  0.69  0.00  0.00  0.00
  YS02001629YS02163301    1.00   0.16  0.01  0.00  0.83  0.00  0.00  0.00  0.00  0.00
  YS02001633YS02163601    1.00   0.00  0.01  0.00  0.99  0.00  0.00  0.00  0.15  0.00
  YS02001641YS02001644    1.00   0.00  0.01  0.00  0.99  0.00  0.00  0.00  0.00  0.00
  YS02001644YS02001647    1.00   0.00  0.18  0.00  0.82  0.00  0.00  0.00  0.00  0.00
  YS02001647YS02001649    1.00   0.00  0.18  0.00  0.47  0.35  0.00  0.00  0.57  0.00
  YS02001649YS02001757    1.00   0.00  0.00  0.00  0.84  0.16  0.00  0.00  0.75  0.00
  YS02001652YS02001649    1.00   0.00  0.00  0.00  0.96  0.04  0.00  0.00  0.76  0.00
  YS02001655YS02001652    1.00   0.00  0.00  0.00  0.15  0.02  0.00  0.83  0.10  0.00
  YS02001658YS02001655    1.00   0.00  0.15  0.00  0.58  0.27  0.00  0.00  0.75  0.00
  YS02001661YS02001658    1.00   0.15  0.00  0.00  0.43  0.42  0.00  0.00  0.75  0.00
  YS02001664YS02001661    1.00   0.13  0.00  0.00  0.76  0.12  0.00  0.00  0.86  0.00
  YS02001745YS02001748    1.00   0.00  0.00  0.00  0.02  0.01  0.00  0.97  0.02  0.00
  YS02001748YS02001751    1.00   0.00  0.00  0.00  0.75  0.25  0.00  0.00  0.84  0.00
  YS02001751YS02001754    1.00   0.00  0.00  0.00  0.08  0.01  0.00  0.91  0.04  0.00
  YS02001754YS02001757    1.00   0.00  0.00  0.00  1.00  0.00  0.00  0.00  0.89  0.00
  YS02001757CaochengTiaoxuchi    1.00   0.00  0.00  0.00  0.04  0.96  0.00  0.00  0.10  0.00
  YS02001759YS02001757    1.00   0.00  0.00  0.00  1.00  0.00  0.00  0.00  0.67  0.00
  YS02001762YS02001759    1.00   0.00  0.00  0.00  1.00  0.00  0.00  0.00  0.06  0.00
  YS02001765YS02001762    1.00   0.00  0.00  0.00  1.00  0.00  0.00  0.00  0.75  0.00
  YS02001767YS02001765    1.00   0.00  0.00  0.00  1.00  0.00  0.00  0.00  0.00  0.00
  YS02001770YS02001767    1.00   0.00  0.00  0.00  1.00  0.00  0.00  0.00  0.00  0.00
  YS02001774YS02001770    1.00   0.00  0.14  0.00  0.69  0.00  0.17  0.00  0.04  0.00
  YS02001779YS02001774    1.00   0.00  0.00  0.00  1.00  0.00  0.00  0.00  0.81  0.00
  YS02001783YS02001784    1.00   0.00  0.19  0.00  0.81  0.00  0.00  0.00  0.56  0.00
  YS02001784YS02001785    1.00   0.00  0.00  0.00  1.00  0.00  0.00  0.00  0.18  0.00
  YS02001786YS02001788    1.00   0.00  0.00  0.00  0.79  0.21  0.00  0.00  0.00  0.00
  YS02001788YS02001790    1.00   0.00  0.00  0.00  0.21  0.79  0.00  0.00  0.84  0.00
  YS02001790YS02001791    1.00   0.00  0.00  0.00  0.01  0.99  0.00  0.00  0.16  0.00
  YS02001791YS02001793    1.00   0.00  0.00  0.00  0.00  1.00  0.00  0.00  0.01  0.00
  YS02001793JiankangQianchi    1.00   0.00  0.00  0.00  0.00  1.00  0.00  0.00  0.22  0.00
  YS02001882YS02001884    1.00   0.16  0.01  0.00  0.83  0.00  0.00  0.00  0.00  0.00
  YS02001884YS02001887    1.00   0.06  0.05  0.00  0.89  0.00  0.00  0.00  0.00  0.00
  YS02001887YS02001890    1.00   0.00  0.00  0.00  0.97  0.00  0.03  0.00  0.00  0.00
  YS02001890YS02001895    1.00   0.00  0.17  0.00  0.83  0.00  0.00  0.00  0.00  0.00
  YS02001895YS02001898    1.00   0.17  0.00  0.00  0.81  0.00  0.02  0.00  0.00  0.00
  YS02001898YS02001901    1.00   0.18  0.00  0.00  0.82  0.00  0.00  0.00  0.01  0.00
  YS02001901YS02001904    1.00   0.17  0.00  0.00  0.83  0.00  0.00  0.00  0.00  0.00
  YS02001904YS02001907    1.00   0.00  0.17  0.00  0.83  0.00  0.00  0.00  0.00  0.00
  YS02001907YS02006553    1.00   0.00  0.02  0.00  0.98  0.00  0.00  0.00  0.00  0.00
  YS02001910YS02001907    1.00   0.00  0.00  0.00  0.97  0.00  0.00  0.03  0.12  0.00
  YS02001915YS02001910    1.00   0.00  0.00  0.00  0.96  0.04  0.00  0.00  0.17  0.00
  YS02001918YS02001915    1.00   0.00  0.01  0.00  0.98  0.02  0.00  0.00  0.77  0.00
  YS02001920YS02001918    1.00   0.00  0.01  0.00  0.99  0.00  0.00  0.00  0.00  0.00
  YS02001923YS02001920    1.00   0.00  0.00  0.00  1.00  0.00  0.00  0.00  0.94  0.00
  YS02001926YS02001923    1.00   0.00  0.07  0.00  0.04  0.00  0.88  0.00  0.00  0.00
  YS02001929YS02001926    1.00   0.00  0.13  0.00  0.87  0.00  0.00  0.00  0.84  0.00
  YS02006553YS02006556    1.00   0.01  0.00  0.00  0.99  0.00  0.00  0.00  0.03  0.00
  YS02006556YS02006558    1.00   0.00  0.00  0.00  1.00  0.00  0.00  0.00  0.00  0.00
  YS02006558YS02006561    1.00   0.19  0.00  0.00  0.04  0.77  0.00  0.00  0.20  0.00
  YS02006561YS02001783    1.00   0.19  0.00  0.00  0.07  0.74  0.00  0.00  0.70  0.00
  YS02163301YS02001633    1.00   0.00  0.16  0.00  0.84  0.00  0.00  0.00  0.00  0.00
  YS02163601YS02164001    1.00   0.00  0.08  0.00  0.92  0.00  0.00  0.00  0.00  0.00
  YS02164001YS02001641    1.00   0.01  0.08  0.00  0.92  0.00  0.00  0.00  0.06  0.00
  
  
  *************************
  Conduit Surcharge Summary
  *************************
  
  ----------------------------------------------------------------------------
                                                           Hours        Hours 
                         --------- Hours Full --------   Above Full   Capacity
  Conduit                Both Ends  Upstream  Dnstream   Normal Flow   Limited
  ----------------------------------------------------------------------------
  WS02003072WS02003073        0.01      0.01      0.01      1.16         0.01
  WS02004403WS02004404        0.01      0.01      0.01      0.01         0.01
  WS02004404WS02004405        0.01      0.01      0.01      2.92         0.01
  WS02004405WS02004406        0.01      0.01      0.01      0.63         0.01
  WS02006109WS02006110        0.10      0.10      1.73      0.17         0.01
  WS02006110WS02006113        0.01      0.01      1.70      0.01         0.01
  WS02006111WS02006112        0.01      0.01      1.92      0.01         0.01
  WS02006112WS02006115        0.01      0.01      1.02      0.01         0.01
  WS02006228WS02006109        1.60      1.74      1.60      2.25         1.59
  WS02006229WS02006228        1.55      1.62      1.55      2.01         1.55
  WS02006230WS02006229        1.85      1.93      1.85      3.96         1.85
  WS02006231WS02006230        0.09      0.09      1.07      3.24         0.01
  WS02006232WS02006231        0.86      0.86      1.75      1.00         0.01
  WS02006234WS02006232        1.48      1.48      1.75      0.64         0.62
  WS02006235WS02006234        1.18      1.23      1.48      2.91         0.19
  WS02006238WS02006235        1.55      1.56      1.74      0.01         0.08
  WS02006239WS02006238        1.58      1.68      1.62      1.67         1.04
  WS02006240WS02006239        1.46      1.53      1.49      1.67         0.98
  WS02006242WS02006240        1.48      1.48      1.74      1.95         0.03
  WS02006243WS02006242        1.51      1.51      1.64      0.01         0.25
  WS02006245WS02006243        1.45      1.47      1.47      1.70         0.92
  WS02006247WS02006245        1.45      1.51      1.45      2.34         1.26
  WS02006248WS02006247        1.44      1.44      1.48      0.01         0.42
  WS02006249WS02006248        1.41      1.42      1.45      2.25         0.01
  WS02006251WS02006249        1.44      1.50      1.45      2.12         1.33
  WS02006252WS02006251        2.27      2.27      2.28      2.28         0.01
  WS02006256WS02006235        2.16      2.97      5.76      1.67         0.05
  YS02001580YS02001583        0.38      0.38      0.43      0.01         0.01
  YS02001583YS02001586        0.38      0.38      0.51      0.01         0.01
  YS02001586YS02001590        0.52      0.52      0.58      0.01         0.01
  YS02001590YS02001593        0.58      0.58      0.59      0.63         0.01
  YS02001593YS02001596        0.59      0.59      0.67      0.01         0.01
  YS02001596YS02001600        0.71      0.71      0.81      0.01         0.01
  YS02001600YS02001601        0.87      0.87      1.19      0.01         0.01
  YS02001601YS02001602        1.05      1.05      1.25      0.83         0.01
  YS02001602YS02001605        1.00      1.00      1.05      2.01         0.01
  YS02001605YS02001607        0.95      1.00      0.95      1.14         0.95
  YS02001607YS02001610        0.51      0.51      0.54      0.01         0.01
  YS02001610YS02001613        0.50      0.50      0.54      0.01         0.01
  YS02001613YS02001616        0.46      0.46      0.50      0.01         0.01
  YS02001616YS02001619        0.44      0.44      0.46      0.01         0.01
  YS02001619YS02001622        0.43      0.44      0.43      0.62         0.42
  YS02001622YS02001625        0.43      0.43      0.62      0.01         0.01
  YS02001625YS02001629        0.33      0.33      0.62      0.01         0.01
  YS02001629YS02163301        0.60      0.60      0.61      0.31         0.29
  YS02001633YS02163601        0.63      0.63      0.65      0.44         0.44
  YS02001641YS02001644        0.46      0.52      0.46      1.31         0.46
  YS02001644YS02001647        0.24      0.24      0.46      0.04         0.01
  YS02001647YS02001649        0.24      0.24      0.27      0.01         0.01
  YS02001649YS02001757        0.25      0.27      0.25      0.34         0.23
  YS02001652YS02001649        0.19      0.19      0.27      0.01         0.01
  YS02001655YS02001652        0.10      0.10      0.17      0.01         0.01
  YS02001658YS02001655        0.03      0.03      0.10      0.01         0.01
  YS02001661YS02001658        0.01      0.01      0.03      0.01         0.01
  YS02001745YS02001748        0.01      0.01      0.01      0.01         0.01
  YS02001748YS02001751        0.01      0.01      0.05      0.01         0.01
  YS02001751YS02001754        0.05      0.05      0.11      0.01         0.01
  YS02001754YS02001757        0.13      0.13      0.25      0.01         0.01
  YS02001757CaochengTiaoxuchi        0.01      0.25      0.01      0.34         0.01
  YS02001759YS02001757        0.22      0.22      0.25      0.01         0.01
  YS02001762YS02001759        0.20      0.20      0.22      0.01         0.01
  YS02001765YS02001762        0.19      0.19      0.20      0.01         0.01
  YS02001767YS02001765        0.18      0.18      0.19      0.01         0.01
  YS02001770YS02001767        0.18      0.19      0.18      0.44         0.17
  YS02001774YS02001770        0.17      0.17      0.21      0.01         0.01
  YS02001779YS02001774        0.12      0.12      0.21      0.01         0.01
  YS02001783YS02001784        0.37      0.39      0.37      0.51         0.37
  YS02001784YS02001785        0.27      0.37      0.27      0.71         0.27
  YS02001786YS02001788        0.01      0.27      0.01      0.59         0.01
  YS02001790YS02001791        0.01      0.01      0.01      0.36         0.01
  YS02001882YS02001884        0.34      0.34      0.35      0.01         0.01
  YS02001884YS02001887        0.37      0.37      0.38      0.01         0.01
  YS02001887YS02001890        0.39      0.39      0.41      0.01         0.01
  YS02001890YS02001895        0.33      0.33      0.42      0.01         0.01
  YS02001895YS02001898        0.33      0.33      0.33      0.01         0.01
  YS02001898YS02001901        0.34      0.34      0.37      0.01         0.01
  YS02001901YS02001904        0.36      0.36      0.37      0.01         0.01
  YS02001904YS02001907        0.36      0.36      0.58      0.01         0.01
  YS02001907YS02006553        0.71      0.71      0.78      0.01         0.01
  YS02001910YS02001907        0.42      0.42      0.56      0.01         0.01
  YS02001915YS02001910        0.34      0.34      0.42      0.01         0.01
  YS02001918YS02001915        0.26      0.26      0.34      0.01         0.01
  YS02001920YS02001918        0.26      0.26      0.27      0.01         0.01
  YS02001923YS02001920        0.21      0.21      0.27      0.01         0.01
  YS02001926YS02001923        0.01      0.01      0.01      0.01         0.01
  YS02001929YS02001926        0.01      0.01      0.01      0.01         0.01
  YS02006553YS02006556        0.49      0.49      0.57      0.01         0.01
  YS02006556YS02006558        0.54      0.54      0.59      0.01         0.01
  YS02006558YS02006561        0.30      0.48      0.30      0.67         0.30
  YS02006561YS02001783        0.23      0.23      0.39      0.01         0.01
  YS02163301YS02001633        0.61      0.61      0.65      0.01         0.01
  YS02163601YS02164001        0.54      0.54      0.65      0.25         0.01
  YS02164001YS02001641        0.52      0.54      0.52      0.68         0.48
  
  
  ***************
  Pumping Summary
  ***************
  
  ---------------------------------------------------------------------------------------------------------
                                                  Min       Avg       Max     Total     Power    % Time Off
                        Percent   Number of      Flow      Flow      Flow    Volume     Usage    Pump Curve
  Pump                 Utilized   Start-Ups       LPS       LPS       LPS  10^6 ltr     Kw-hr    Low   High
  ---------------------------------------------------------------------------------------------------------
  CC-R1                   19.30           7      0.00    683.00    683.00     3.756     59.53    0.0  100.0
  CC-R2                   19.30           7      0.00    683.00    683.00     3.756     59.53    0.0  100.0
  CC-S1                   28.78          18      0.00    200.00    200.00     1.641     14.05    0.0   62.5
  CC-S2                   28.78          18      0.00    200.00    200.00     1.641     14.05    0.0   62.5
  JK-R1                    4.08         310      0.00    997.80   1000.00     1.158      2.90    0.0    0.0
  JK-R2                    4.08         310      0.00    997.80   1000.00     1.158      2.90    0.0    0.0
  JK-S                    17.75         591      0.00    296.19    300.00     1.463     33.53    0.0    0.0
  

  Analysis begun on:  Thu Jan 16 14:21:33 2025
  Analysis ended on:  Thu Jan 16 14:21:35 2025
  Total elapsed time: 00:00:02