
  EPA STORM WATER MANAGEMENT MODEL - VERSION 5.2 (Build 5.2.4)
  PYSWMM TOOLKIT API - VERSION v1.0 (2023-11-27)
  ------------------------------------------------------------

  
  ****************
  Analysis Options
  ****************
  Flow Units ............... CMS
  Process Models:
    Rainfall/Runoff ........ YES
    RDII ................... NO
    Snowmelt ............... NO
    Groundwater ............ NO
    Flow Routing ........... YES
    Ponding Allowed ........ YES
    Water Quality .......... NO
  Infiltration Method ...... HORTON
  Flow Routing Method ...... DYNWAVE
  Surcharge Method ......... EXTRAN
  Starting Date ............ 01/01/2000 08:00:00
  Ending Date .............. 01/01/2000 16:00:00
  Antecedent Dry Days ...... 0.0
  Report Time Step ......... 00:05:00
  Wet Time Step ............ 00:05:00
  Dry Time Step ............ 00:05:00
  Routing Time Step ........ 30.00 sec
  Variable Time Step ....... YES
  Maximum Trials ........... 8
  Number of Threads ........ 1
  Head Tolerance ........... 0.001500 m
  
  
  **************************        Volume         Depth
  Runoff Quantity Continuity     hectare-m            mm
  **************************     ---------       -------
  Total Precipitation ......         1.054         5.851
  Evaporation Loss .........         0.000         0.000
  Infiltration Loss ........         0.000         0.000
  Surface Runoff ...........         1.034         5.739
  Final Storage ............         0.022         0.123
  Continuity Error (%) .....        -0.180
  
  
  **************************        Volume        Volume
  Flow Routing Continuity        hectare-m      10^6 ltr
  **************************     ---------     ---------
  Dry Weather Inflow .......         0.399         3.989
  Wet Weather Inflow .......         1.033        10.334
  Groundwater Inflow .......         0.000         0.000
  RDII Inflow ..............         0.000         0.000
  External Inflow ..........         0.000         0.000
  External Outflow .........         0.603         6.026
  Flooding Loss ............         0.123         1.234
  Evaporation Loss .........         0.000         0.000
  Exfiltration Loss ........         0.000         0.000
  Initial Stored Volume ....         0.000         0.000
  Final Stored Volume ......         0.565         5.654
  Continuity Error (%) .....         9.836
  
  
  *************************
  Highest Continuity Errors
  *************************
  Node T2 (32.39%)
  Node T5 (22.60%)
  Node T4 (21.17%)
  Node T3 (17.30%)
  Node T6 (13.83%)
  
  
  ***************************
  Time-Step Critical Elements
  ***************************
  Link C15 (26.02%)
  Link C21 (7.95%)
  
  
  ********************************
  Highest Flow Instability Indexes
  ********************************
  Link C13 (2)
  Link C8 (2)
  Link C21 (2)
  Link C20 (1)
  Link C23 (1)
  
  
  *********************************
  Most Frequent Nonconverging Nodes
  *********************************
  Node Out_to_WWTP (0.38%)
  Node CSO9 (0.28%)
  Node CSO10 (0.09%)
  
  
  *************************
  Routing Time Step Summary
  *************************
  Minimum Time Step           :     3.47 sec
  Average Time Step           :    26.96 sec
  Maximum Time Step           :    30.00 sec
  % of Time in Steady State   :     0.00
  Average Iterations per Step :     2.19
  % of Steps Not Converging   :     0.38
  Time Step Frequencies       :
     30.000 - 13.228 sec      :    98.48 %
     13.228 -  5.833 sec      :     0.95 %
      5.833 -  2.572 sec      :     0.57 %
      2.572 -  1.134 sec      :     0.00 %
      1.134 -  0.500 sec      :     0.00 %
  
  
  ***************************
  Subcatchment Runoff Summary
  ***************************
  
  ------------------------------------------------------------------------------------------------------------------------------
                            Total      Total      Total      Total     Imperv       Perv      Total       Total     Peak  Runoff
                           Precip      Runon       Evap      Infil     Runoff     Runoff     Runoff      Runoff   Runoff   Coeff
  Subcatchment                 mm         mm         mm         mm         mm         mm         mm    10^6 ltr      CMS
  ------------------------------------------------------------------------------------------------------------------------------
  SC01                       7.63       0.00       0.00       0.00       7.56       0.00       7.56        2.50     0.53   0.991
  SC02                       3.67       0.00       0.00       0.00       3.59       0.00       3.59        0.82     0.23   0.978
  SC03                       4.19       0.00       0.00       0.00       4.13       0.00       4.13        0.74     0.23   0.986
  SC04                       3.67       0.00       0.00       0.00       3.50       0.00       3.50        0.24     0.05   0.953
  SC05                       7.63       0.00       0.00       0.00       7.56       0.00       7.56        1.18     0.25   0.990
  SC06                       6.97       0.00       0.00       0.00       6.75       0.00       6.75        2.20     0.35   0.969
  SC07                       3.67       0.00       0.00       0.00       3.50       0.00       3.50        0.17     0.03   0.953
  SC08                       4.19       0.00       0.00       0.00       4.09       0.00       4.09        1.14     0.29   0.975
  SC09                       6.97       0.00       0.00       0.00       6.85       0.00       6.85        0.47     0.08   0.982
  SC010                      7.63       0.00       0.00       0.00       7.53       0.00       7.53        0.89     0.18   0.988
  
  
  ******************
  Node Depth Summary
  ******************
  
  ---------------------------------------------------------------------------------
                                 Average  Maximum  Maximum  Time of Max    Reported
                                   Depth    Depth      HGL   Occurrence   Max Depth
  Node                 Type       Meters   Meters   Meters  days hr:min      Meters
  ---------------------------------------------------------------------------------
  J1                   JUNCTION     0.08     0.17    34.17     0  02:15        0.17
  J3                   JUNCTION     0.11     0.15    18.15     0  05:07        0.15
  CSO7                 JUNCTION     0.09     0.17    34.17     0  02:30        0.17
  J5                   JUNCTION     0.06     0.11    32.11     0  02:30        0.11
  CSO9                 JUNCTION     0.16     0.66    40.66     0  02:00        0.62
  J8                   JUNCTION     0.12     0.22    36.22     0  02:15        0.22
  CSO8                 JUNCTION     0.12     0.37    32.37     0  02:20        0.36
  J10                  JUNCTION     0.09     0.22    29.22     0  02:23        0.22
  J13                  JUNCTION     0.06     0.13    29.13     0  02:15        0.13
  J15                  JUNCTION     0.18     0.30    15.30     0  02:19        0.30
  J16                  JUNCTION     0.08     0.18    30.18     0  02:15        0.18
  CSO10                JUNCTION     0.15     0.74    30.74     0  02:15        0.51
  J12                  JUNCTION     0.14     0.27    26.27     0  02:27        0.27
  J4                   JUNCTION     0.11     0.20    33.20     0  02:32        0.20
  J6                   JUNCTION     0.05     0.06    25.06     0  05:59        0.06
  J2                   JUNCTION     0.07     0.08    25.08     0  03:39        0.08
  J19                  JUNCTION     0.15     0.17     8.17     0  02:20        0.17
  J9                   JUNCTION     0.12     0.16    29.16     0  03:23        0.16
  J14                  JUNCTION     0.12     0.18    20.18     0  04:57        0.18
  J17                  JUNCTION     0.05     0.06    20.06     0  05:34        0.06
  J7                   JUNCTION     0.09     0.19    39.19     0  02:03        0.19
  J11                  JUNCTION     0.09     0.23    31.23     0  02:25        0.23
  J18                  JUNCTION     0.06     0.15    29.15     0  02:17        0.15
  Out_to_WWTP          OUTFALL      0.15     0.17     6.17     0  03:53        0.17
  T5                   STORAGE      3.52     5.00    32.00     0  02:59        5.00
  T4                   STORAGE      1.55     2.51    29.51     0  05:57        2.51
  T6                   STORAGE      3.05     5.00    36.00     0  02:48        5.00
  T3                   STORAGE      2.26     3.88    25.88     0  04:59        3.88
  T2                   STORAGE      1.41     2.15    23.15     0  05:32        2.15
  T1                   STORAGE      3.73     5.00    15.00     0  02:19        5.00
  
  
  *******************
  Node Inflow Summary
  *******************
  
  -------------------------------------------------------------------------------------------------
                                  Maximum  Maximum                  Lateral       Total        Flow
                                  Lateral    Total  Time of Max      Inflow      Inflow     Balance
                                   Inflow   Inflow   Occurrence      Volume      Volume       Error
  Node                 Type           CMS      CMS  days hr:min    10^6 ltr    10^6 ltr     Percent
  -------------------------------------------------------------------------------------------------
  J1                   JUNCTION     0.268    0.268     0  02:15        1.74        1.74      -0.001
  J3                   JUNCTION     0.000    0.227     0  04:58           0        3.98       1.028
  CSO7                 JUNCTION     0.045    0.045     0  02:30       0.459       0.459       0.113
  J5                   JUNCTION     0.055    0.098     0  02:30        0.37       0.825       0.193
  CSO9                 JUNCTION     0.090    0.090     0  02:00        0.67        0.67       0.027
  J8                   JUNCTION     0.383    0.471     0  02:15        3.15        3.81       0.083
  CSO8                 JUNCTION     0.298    0.298     0  02:20        1.44        1.44       0.054
  J10                  JUNCTION     0.245    0.526     0  02:22        1.13        2.57       0.216
  J13                  JUNCTION     0.244    0.244     0  02:15        1.29        1.29      -0.283
  J15                  JUNCTION     0.000    0.820     0  02:16           0        8.48       1.047
  J16                  JUNCTION     0.550    0.550     0  02:15        3.05        3.05      -0.035
  CSO10                JUNCTION     0.186    0.186     0  02:15        1.02        1.02      -0.015
  J12                  JUNCTION     0.000    0.667     0  02:24           0        5.27       0.411
  J4                   JUNCTION     0.000    0.045     0  02:30           0       0.459       0.821
  J6                   JUNCTION     0.000    0.020     0  05:57           0       0.419       0.751
  J2                   JUNCTION     0.000    0.039     0  02:59           0       0.868       0.579
  J19                  JUNCTION     0.000    0.271     0  02:19           0        6.04       0.203
  J9                   JUNCTION     0.000    0.175     0  02:48           0        2.72       0.526
  J14                  JUNCTION     0.000    0.167     0  04:59           0        2.71       0.311
  J17                  JUNCTION     0.000    0.022     0  05:32           0       0.468       1.068
  J7                   JUNCTION     0.000    0.090     0  02:00           0        0.67       0.483
  J11                  JUNCTION     0.000    0.298     0  02:21           0        1.44       0.415
  J18                  JUNCTION     0.000    0.185     0  02:15           0        1.02       0.101
  Out_to_WWTP          OUTFALL      0.000    0.271     0  02:21           0        6.03       0.000
  T5                   STORAGE      0.000    0.266     0  02:15           0        1.74      29.203
  T4                   STORAGE      0.000    0.098     0  02:31           0       0.823      26.862
  T6                   STORAGE      0.000    0.471     0  02:15           0        3.81      16.053
  T3                   STORAGE      0.000    0.660     0  02:27           0        5.25      20.912
  T2                   STORAGE      0.000    0.243     0  02:16           0        1.29      47.912
  T1                   STORAGE      0.000    0.791     0  02:19           0        8.39       9.957
  
  
  **********************
  Node Surcharge Summary
  **********************
  
  Surcharging occurs when water rises above the top of the highest conduit.
  ---------------------------------------------------------------------
                                               Max. Height   Min. Depth
                                   Hours       Above Crown    Below Rim
  Node                 Type      Surcharged         Meters       Meters
  ---------------------------------------------------------------------
  CSO9                 JUNCTION        0.68          0.338        1.344
  CSO10                JUNCTION        0.14          0.297        0.263
  
  
  *********************
  Node Flooding Summary
  *********************
  
  Flooding refers to all water that overflows a node, whether it ponds or not.
  --------------------------------------------------------------------------
                                                             Total   Maximum
                                 Maximum   Time of Max       Flood    Ponded
                        Hours       Rate    Occurrence      Volume     Depth
  Node                 Flooded       CMS   days hr:min    10^6 ltr    Meters
  --------------------------------------------------------------------------
  T5                      0.77     0.095      0  03:01       0.087     0.000
  T6                      0.58     0.222      0  02:48       0.195     0.000
  T1                      1.34     0.521      0  02:19       0.951     0.000
  
  
  **********************
  Storage Volume Summary
  **********************
  
  ------------------------------------------------------------------------------------------------
                         Average    Avg   Evap  Exfil     Maximum    Max    Time of Max    Maximum
                          Volume   Pcnt   Pcnt   Pcnt      Volume   Pcnt     Occurrence    Outflow
  Storage Unit           1000 m³   Full   Loss   Loss     1000 m³   Full    days hr:min        CMS
  ------------------------------------------------------------------------------------------------
  T5                       0.352   70.5    0.0    0.0       0.500  100.0       0  02:59      0.039
  T4                       0.155   31.0    0.0    0.0       0.251   50.1       0  05:57      0.020
  T6                       0.366   61.0    0.0    0.0       0.600  100.0       0  02:48      0.175
  T3                       1.173   45.1    0.0    0.0       2.016   77.6       0  04:59      0.167
  T2                       0.282   28.2    0.0    0.0       0.429   42.9       0  05:32      0.022
  T1                       0.522   74.6    0.0    0.0       0.700  100.0       0  02:19      0.271
  
  
  ***********************
  Outfall Loading Summary
  ***********************
  
  -----------------------------------------------------------
                         Flow       Avg       Max       Total
                         Freq      Flow      Flow      Volume
  Outfall Node           Pcnt       CMS       CMS    10^6 ltr
  -----------------------------------------------------------
  Out_to_WWTP           98.96     0.217     0.271       6.026
  -----------------------------------------------------------
  System                98.96     0.217     0.271       6.026
  
  
  ********************
  Link Flow Summary
  ********************
  
  -----------------------------------------------------------------------------
                                 Maximum  Time of Max   Maximum    Max/    Max/
                                  |Flow|   Occurrence   |Veloc|    Full    Full
  Link                 Type          CMS  days hr:min     m/sec    Flow   Depth
  -----------------------------------------------------------------------------
  C1                   CONDUIT     0.039     0  03:39      1.03    0.01    0.11
  C6                   CONDUIT     0.044     0  02:32      1.21    0.70    0.51
  C2                   CONDUIT     0.020     0  05:59      0.97    0.02    0.18
  C9                   CONDUIT     0.089     0  02:03      1.17    0.30    0.41
  C16                  CONDUIT     0.295     0  02:25      1.50    0.03    0.11
  C3                   CONDUIT     0.168     0  04:58      2.08    0.06    0.16
  C19                  CONDUIT     0.022     0  05:34      0.44    0.01    0.17
  C11                  CONDUIT     0.225     0  05:07      1.87    0.01    0.10
  C20                  CONDUIT     0.545     0  02:15      2.83    0.02    0.12
  C22                  CONDUIT     0.181     0  02:17      1.55    0.08    0.28
  C12                  CONDUIT     0.175     0  03:23      1.46    0.01    0.11
  C17                  CONDUIT     0.523     0  02:24      2.41    0.03    0.12
  C10                  CONDUIT     0.471     0  02:15      1.66    0.05    0.57
  C13                  CONDUIT     0.660     0  02:27      1.54    0.04    0.56
  C18                  CONDUIT     0.243     0  02:16      3.36    0.01    0.52
  C23                  CONDUIT     0.791     0  02:19      1.25    0.09    0.60
  C4                   CONDUIT     0.266     0  02:15      3.06    0.06    0.59
  C7                   CONDUIT     0.098     0  02:31      1.44    0.02    0.55
  C14                  CONDUIT     0.271     0  02:21      2.08    0.02    0.09
  C5                   CONDUIT     0.045     0  02:30      1.23    0.77    0.72
  C8                   CONDUIT     0.090     0  02:00      1.33    1.13    0.80
  C15                  CONDUIT     0.298     0  02:21      2.65    0.95    0.66
  C21                  CONDUIT     0.185     0  02:15      1.76    1.06    0.68
  V4                   ORIFICE     0.020     0  05:57                      1.00
  V5                   ORIFICE     0.039     0  02:59                      1.00
  V1                   ORIFICE     0.271     0  02:19                      1.00
  V6                   ORIFICE     0.175     0  02:48                      1.00
  V3                   ORIFICE     0.167     0  04:59                      1.00
  V2                   ORIFICE     0.022     0  05:32                      0.24
  
  
  ***************************
  Flow Classification Summary
  ***************************
  
  -------------------------------------------------------------------------------------
                      Adjusted    ---------- Fraction of Time in Flow Class ---------- 
                       /Actual         Up    Down  Sub   Sup   Up    Down  Norm  Inlet 
  Conduit               Length    Dry  Dry   Dry   Crit  Crit  Crit  Crit  Ltd   Ctrl  
  -------------------------------------------------------------------------------------
  C1                      1.00   0.00  0.00  0.00  0.38  0.62  0.00  0.00  0.95  0.00
  C6                      1.00   0.00  0.00  0.00  0.01  0.99  0.00  0.00  0.00  0.00
  C2                      1.00   0.00  0.00  0.00  0.89  0.10  0.00  0.00  0.98  0.00
  C9                      1.00   0.00  0.00  0.00  1.00  0.00  0.00  0.00  1.00  0.00
  C16                     1.00   0.00  0.00  0.00  0.66  0.34  0.00  0.00  0.55  0.00
  C3                      1.00   0.00  0.01  0.00  0.05  0.95  0.00  0.00  0.15  0.00
  C19                     1.00   0.00  0.00  0.00  1.00  0.00  0.00  0.00  1.00  0.00
  C11                     1.00   0.00  0.00  0.00  0.30  0.69  0.00  0.00  1.00  0.00
  C20                     1.00   0.00  0.00  0.00  0.57  0.43  0.00  0.00  0.98  0.00
  C22                     1.00   0.00  0.00  0.00  0.79  0.21  0.00  0.00  1.00  0.00
  C12                     1.00   0.00  0.00  0.00  0.24  0.76  0.00  0.00  0.87  0.00
  C17                     1.00   0.00  0.00  0.00  0.54  0.46  0.00  0.00  0.97  0.00
  C10                     1.00   0.00  0.00  0.00  0.94  0.06  0.00  0.00  0.98  0.00
  C13                     1.00   0.00  0.00  0.00  0.88  0.12  0.00  0.00  0.91  0.00
  C18                     1.00   0.00  0.00  0.00  0.94  0.06  0.00  0.00  0.97  0.00
  C23                     1.00   0.00  0.00  0.00  0.88  0.12  0.00  0.00  0.95  0.00
  C4                      1.00   0.00  0.00  0.00  0.96  0.04  0.00  0.00  0.98  0.00
  C7                      1.00   0.00  0.00  0.00  0.94  0.06  0.00  0.00  0.97  0.00
  C14                     1.00   0.00  0.01  0.00  0.01  0.98  0.00  0.00  0.51  0.00
  C5                      1.00   0.00  0.00  0.00  0.90  0.10  0.00  0.00  0.98  0.00
  C8                      1.00   0.00  0.00  0.00  0.15  0.85  0.00  0.00  0.00  0.00
  C15                     1.00   0.00  0.00  0.00  0.00  1.00  0.00  0.00  0.00  0.00
  C21                     1.00   0.00  0.00  0.00  0.01  0.99  0.00  0.00  0.00  0.00
  
  
  *************************
  Conduit Surcharge Summary
  *************************
  
  ----------------------------------------------------------------------------
                                                           Hours        Hours 
                         --------- Hours Full --------   Above Full   Capacity
  Conduit                Both Ends  Upstream  Dnstream   Normal Flow   Limited
  ----------------------------------------------------------------------------
  C10                         0.01      0.01      6.01      0.01         0.01
  C13                         0.01      0.01      5.15      0.01         0.01
  C18                         0.01      0.01      4.33      0.01         0.01
  C23                         0.01      0.01      6.19      0.01         0.01
  C4                          0.01      0.01      6.27      0.01         0.01
  C7                          0.01      0.01      5.37      0.01         0.01
  C8                          0.01      0.68      0.01      0.69         0.01
  C21                         0.01      0.14      0.01      0.09         0.01
  

  Analysis begun on:  Fri Nov 29 10:02:20 2024
  Analysis ended on:  Fri Nov 29 10:02:20 2024
  Total elapsed time: < 1 sec