
  EPA STORM WATER MANAGEMENT MODEL - VERSION 5.2 (Build 5.2.4)
  PYSWMM TOOLKIT API - VERSION v1.0 (2023-11-27)
  ------------------------------------------------------------

  WARNING 04: minimum elevation drop used for Conduit WS02004404WS02004405
  WARNING 03: negative offset ignored for Link YS02001904YS02001907
  
  ****************
  Analysis Options
  ****************
  Flow Units ............... LPS
  Process Models:
    Rainfall/Runoff ........ YES
    RDII ................... NO
    Snowmelt ............... NO
    Groundwater ............ NO
    Flow Routing ........... YES
    Ponding Allowed ........ NO
    Water Quality .......... NO
  Infiltration Method ...... HORTON
  Flow Routing Method ...... DYNWAVE
  Surcharge Method ......... EXTRAN
  Starting Date ............ 08/28/2015 08:00:00
  Ending Date .............. 08/28/2015 16:00:00
  Antecedent Dry Days ...... 8.0
  Report Time Step ......... 00:01:00
  Wet Time Step ............ 00:01:00
  Dry Time Step ............ 00:01:00
  Routing Time Step ........ 30.00 sec
  Variable Time Step ....... YES
  Maximum Trials ........... 8
  Number of Threads ........ 4
  Head Tolerance ........... 0.001500 m
  
  
  **************************        Volume         Depth
  Runoff Quantity Continuity     hectare-m            mm
  **************************     ---------       -------
  Total Precipitation ......         1.718        51.786
  Evaporation Loss .........         0.000         0.000
  Infiltration Loss ........         0.096         2.892
  Surface Runoff ...........         1.589        47.911
  Final Storage ............         0.033         0.996
  Continuity Error (%) .....        -0.025
  
  
  **************************        Volume        Volume
  Flow Routing Continuity        hectare-m      10^6 ltr
  **************************     ---------     ---------
  Dry Weather Inflow .......         0.025         0.248
  Wet Weather Inflow .......         1.589        15.889
  Groundwater Inflow .......         0.000         0.000
  RDII Inflow ..............         0.000         0.000
  External Inflow ..........         0.083         0.825
  External Outflow .........         1.497        14.967
  Flooding Loss ............         0.417         4.168
  Evaporation Loss .........         0.000         0.000
  Exfiltration Loss ........         0.000         0.000
  Initial Stored Volume ....         0.243         2.431
  Final Stored Volume ......         0.040         0.397
  Continuity Error (%) .....        -0.720
  
  
  *************************
  Highest Continuity Errors
  *************************
  Node YS02001884 (5.33%)
  Node YS02001583 (-5.24%)
  Node WS02006256 (-3.60%)
  Node JK-storage (-1.73%)
  
  
  ***************************
  Time-Step Critical Elements
  ***************************
  Link WS02006238WS02006235 (33.99%)
  Link WS02004404WS02004405 (21.26%)
  Link WS02003066WSF200 (14.85%)
  Link YS02001793JiankangQianchi (7.72%)
  Link YS02001791YS02001793 (4.02%)
  
  
  ********************************
  Highest Flow Instability Indexes
  ********************************
  Link WS02006113WS02006111 (36)
  Link WS02004404WS02004405 (26)
  Link WS02006256WS02006235 (24)
  Link WS02006252WS02006251 (23)
  Link WS02004403WS02004404 (23)
  
  
  *********************************
  Most Frequent Nonconverging Nodes
  *********************************
  Node CC-1 (27.67%)
  Node CC-2 (27.67%)
  Node JK-1 (27.67%)
  Node JK-2 (27.67%)
  Node WSC (27.67%)
  
  
  *************************
  Routing Time Step Summary
  *************************
  Minimum Time Step           :     0.00 sec
  Average Time Step           :     2.94 sec
  Maximum Time Step           :     6.43 sec
  % of Time in Steady State   :     0.00
  Average Iterations per Step :     4.08
  % of Steps Not Converging   :    27.67
  Time Step Frequencies       :
     30.000 - 13.228 sec      :     0.00 %
     13.228 -  5.833 sec      :    13.64 %
      5.833 -  2.572 sec      :    32.32 %
      2.572 -  1.134 sec      :    40.05 %
      1.134 -  0.500 sec      :    13.99 %
  
  
  ***************************
  Subcatchment Runoff Summary
  ***************************
  
  ------------------------------------------------------------------------------------------------------------------------------
                            Total      Total      Total      Total     Imperv       Perv      Total       Total     Peak  Runoff
                           Precip      Runon       Evap      Infil     Runoff     Runoff     Runoff      Runoff   Runoff   Coeff
  Subcatchment                 mm         mm         mm         mm         mm         mm         mm    10^6 ltr      LPS
  ------------------------------------------------------------------------------------------------------------------------------
  sub60                     51.79       0.00       0.00       1.73      44.37       4.49      48.86        0.64   490.77   0.943
  sub61                     51.79       0.00       0.00       2.51      41.85       6.30      48.15        0.88   680.86   0.930
  sub62                     51.79       0.00       0.00       1.15      46.36       2.99      49.35        1.35   950.80   0.953
  sub63                     51.79       0.00       0.00       4.66      35.80      10.36      46.16        1.05   753.78   0.891
  sub64                     51.79       0.00       0.00       2.35      42.81       5.42      48.23        1.16   771.72   0.931
  sub65                     51.79       0.00       0.00       2.03      43.80       4.70      48.50        1.34   860.04   0.937
  sub66                     51.79       0.00       0.00       5.79      35.69       9.23      44.92        2.09  1103.99   0.867
  sub67                     51.79       0.00       0.00       1.11      46.40       3.04      49.44        0.92   745.88   0.955
  sub68                     51.79       0.00       0.00       2.08      43.35       5.17      48.52        1.34   973.49   0.937
  sub69                     51.79       0.00       0.00       1.84      43.90       5.93      49.83        1.84  1144.48   0.962
  sub70                     51.79       0.00       0.00       6.20      34.01      11.40      45.42        1.31   618.28   0.877
  sub71                     51.79       0.00       0.00       1.18      46.31       2.96      49.27        1.29   834.84   0.952
  sub72                     51.79       0.00       0.00       1.05      46.76       2.57      49.33        0.68   399.09   0.953
  
  
  ******************
  Node Depth Summary
  ******************
  
  ---------------------------------------------------------------------------------
                                 Average  Maximum  Maximum  Time of Max    Reported
                                   Depth    Depth      HGL   Occurrence   Max Depth
  Node                 Type       Meters   Meters   Meters  days hr:min      Meters
  ---------------------------------------------------------------------------------
  WS02003060           JUNCTION     0.23     0.38     5.31     0  03:03        0.38
  WS02003066           JUNCTION     0.19     0.30     5.85     0  03:03        0.30
  WS02003067           JUNCTION     0.48     0.70     6.02     0  03:03        0.70
  WS02003069           JUNCTION     0.25     0.43     5.01     0  03:04        0.43
  WS02003072           JUNCTION     0.31     0.50     4.87     0  03:04        0.50
  WS02003073           JUNCTION     0.18     0.30     4.36     0  03:05        0.30
  WS02004401           JUNCTION     0.58     0.87     6.87     0  03:00        0.87
  WS02004402           JUNCTION     0.61     0.90     6.86     0  03:00        0.90
  WS02004403           JUNCTION     0.63     0.92     6.85     0  02:53        0.91
  WS02004404           JUNCTION     0.71     1.01     6.86     0  02:53        0.99
  WS02004405           JUNCTION     0.69     0.96     6.81     0  03:00        0.96
  WS02004406           JUNCTION     0.70     0.96     6.79     0  02:53        0.96
  WS02004407           JUNCTION     0.17     0.30     6.61     0  03:01        0.29
  WS02004409           JUNCTION     0.38     0.67     6.44     0  03:01        0.67
  WS02004410           JUNCTION     0.40     0.68     6.40     0  03:02        0.68
  WS02004411           JUNCTION     0.42     0.69     6.37     0  03:02        0.69
  WS02004412           JUNCTION     0.44     0.70     6.34     0  03:02        0.70
  WS02004413           JUNCTION     0.59     0.86     6.33     0  03:02        0.86
  WS02006109           JUNCTION     0.65     1.45     8.07     0  02:04        1.20
  WS02006110           JUNCTION     0.65     1.53     8.11     0  02:04        1.37
  WS02006111           JUNCTION     0.17     0.29     6.99     0  02:50        0.29
  WS02006112           JUNCTION     0.74     1.09     6.97     0  02:04        1.08
  WS02006113           JUNCTION     0.27     0.46     7.35     0  02:49        0.46
  WS02006115           JUNCTION     0.47     0.77     6.91     0  03:00        0.77
  WS02006116           JUNCTION     0.55     0.85     6.89     0  03:00        0.85
  WS02006228           JUNCTION     0.65     1.38     8.03     0  02:02        1.21
  WS02006229           JUNCTION     0.62     1.47     8.16     0  02:02        1.27
  WS02006230           JUNCTION     0.64     1.80     8.54     0  02:04        1.51
  WS02006231           JUNCTION     0.44     1.71     8.84     0  02:19        1.39
  WS02006232           JUNCTION     0.57     2.03     9.07     0  02:49        2.03
  WS02006234           JUNCTION     0.50     1.96     9.12     0  02:02        1.96
  WS02006235           JUNCTION     0.54     2.00     9.16     0  02:02        2.00
  WS02006238           JUNCTION     0.57     2.15     9.29     0  02:02        2.15
  WS02006239           JUNCTION     0.54     2.03     9.24     0  02:02        2.03
  WS02006240           JUNCTION     0.51     2.10     9.39     0  02:02        2.10
  WS02006242           JUNCTION     0.58     1.55     8.82     0  01:51        1.55
  WS02006243           JUNCTION     0.50     1.48     8.90     0  02:02        1.48
  WS02006245           JUNCTION     0.50     1.56     9.04     0  02:02        1.56
  WS02006247           JUNCTION     0.52     1.47     8.97     0  02:02        1.47
  WS02006248           JUNCTION     0.49     1.10     8.69     0  01:51        1.10
  WS02006249           JUNCTION     0.51     1.09     8.69     0  01:50        1.09
  WS02006251           JUNCTION     0.50     1.58     9.25     0  03:28        1.27
  WS02006252           JUNCTION     0.33     1.50     9.74     0  00:00        1.22
  WS02006256           JUNCTION     1.06     2.35     9.28     0  00:00        2.35
  WSF200               JUNCTION     0.16     0.29     5.52     0  03:03        0.29
  YS02001580           JUNCTION     0.11     1.05     9.59     0  02:06        0.81
  YS02001583           JUNCTION     0.14     1.00     9.50     0  02:06        0.82
  YS02001586           JUNCTION     0.23     1.13     9.30     0  02:06        1.13
  YS02001590           JUNCTION     0.33     1.40     9.26     0  02:06        1.39
  YS02001593           JUNCTION     0.27     1.45     9.31     0  02:05        1.29
  YS02001596           JUNCTION     0.36     1.71     9.13     0  02:05        1.67
  YS02001600           JUNCTION     0.44     1.87     9.00     0  02:05        1.87
  YS02001601           JUNCTION     0.62     2.06     8.90     0  02:05        2.06
  YS02001602           JUNCTION     0.53     1.87     8.77     0  02:06        1.87
  YS02001605           JUNCTION     0.49     1.78     8.68     0  02:06        1.78
  YS02001607           JUNCTION     0.46     1.68     8.53     0  02:06        1.68
  YS02001610           JUNCTION     0.50     1.68     8.48     0  02:06        1.68
  YS02001613           JUNCTION     0.46     1.70     8.54     0  02:06        1.65
  YS02001616           JUNCTION     0.40     1.61     8.52     0  02:06        1.61
  YS02001619           JUNCTION     0.38     1.61     8.54     0  02:06        1.61
  YS02001622           JUNCTION     0.37     1.62     8.52     0  02:14        1.62
  YS02001625           JUNCTION     0.60     1.78     8.38     0  02:06        1.78
  YS02001629           JUNCTION     0.49     1.85     8.40     0  02:06        1.85
  YS02001633           JUNCTION     0.56     2.03     8.49     0  02:10        2.02
  YS02001641           JUNCTION     0.52     1.97     8.41     0  02:10        1.95
  YS02001644           JUNCTION     0.51     1.92     8.35     0  02:10        1.92
  YS02001647           JUNCTION     0.30     1.81     8.42     0  02:11        1.77
  YS02001649           JUNCTION     0.33     2.05     8.44     0  02:11        2.05
  YS02001652           JUNCTION     0.22     2.09     8.68     0  02:12        2.09
  YS02001655           JUNCTION     0.16     2.07     8.92     0  02:12        2.07
  YS02001658           JUNCTION     0.12     1.96     9.10     0  02:12        1.96
  YS02001661           JUNCTION     0.15     1.60     9.00     0  02:12        1.60
  YS02001664           JUNCTION     0.06     0.80     8.73     0  02:12        0.71
  YS02001745           JUNCTION     0.07     1.63     9.14     0  02:11        0.81
  YS02001748           JUNCTION     0.10     1.90     8.98     0  02:11        1.21
  YS02001751           JUNCTION     0.12     1.96     8.84     0  02:11        1.38
  YS02001754           JUNCTION     0.17     2.06     8.67     0  02:11        1.64
  YS02001757           JUNCTION     0.33     2.19     8.45     0  02:11        2.00
  YS02001759           JUNCTION     0.27     2.16     8.53     0  02:11        1.95
  YS02001762           JUNCTION     0.26     2.14     8.54     0  02:11        1.93
  YS02001765           JUNCTION     0.25     2.08     8.53     0  02:11        1.89
  YS02001767           JUNCTION     0.24     2.01     8.50     0  02:11        1.88
  YS02001770           JUNCTION     0.26     1.95     8.44     0  02:11        1.92
  YS02001774           JUNCTION     0.32     2.01     8.43     0  02:11        1.97
  YS02001779           JUNCTION     0.16     1.68     8.37     0  02:10        1.68
  YS02001783           JUNCTION     0.28     1.57     7.71     0  02:09        1.23
  YS02001784           JUNCTION     0.29     1.30     7.37     0  02:09        1.12
  YS02001786           JUNCTION     0.24     0.97     7.00     0  02:09        0.87
  YS02001788           JUNCTION     0.17     0.62     6.60     0  02:09        0.62
  YS02001790           JUNCTION     0.21     0.72     6.37     0  02:13        0.72
  YS02001791           JUNCTION     0.13     0.44     5.91     0  02:14        0.43
  YS02001793           JUNCTION     0.07     0.26     5.10     0  02:14        0.25
  YS02001882           JUNCTION     0.35     1.65     8.36     0  02:14        1.64
  YS02001884           JUNCTION     0.43     1.74     8.36     0  02:14        1.74
  YS02001887           JUNCTION     0.50     1.83     8.36     0  02:12        1.83
  YS02001890           JUNCTION     0.53     1.81     8.32     0  02:09        1.81
  YS02001895           JUNCTION     0.32     1.58     8.32     0  02:09        1.56
  YS02001898           JUNCTION     0.33     1.65     8.38     0  02:14        1.65
  YS02001901           JUNCTION     0.43     1.71     8.32     0  02:14        1.71
  YS02001904           JUNCTION     0.41     1.65     8.28     0  02:09        1.64
  YS02001907           JUNCTION     0.71     1.96     8.25     0  02:09        1.96
  YS02001910           JUNCTION     0.52     1.99     8.49     0  02:10        1.95
  YS02001915           JUNCTION     0.35     1.94     8.66     0  02:10        1.85
  YS02001918           JUNCTION     0.20     1.81     8.88     0  02:09        1.46
  YS02001920           JUNCTION     0.28     2.14     9.15     0  02:10        1.53
  YS02001923           JUNCTION     0.15     2.03     9.29     0  02:10        1.23
  YS02001926           JUNCTION     0.18     1.90     9.35     0  02:10        1.06
  YS02001929           JUNCTION     0.10     1.78     9.47     0  02:10        0.82
  YS02006553           JUNCTION     0.71     2.04     8.32     0  02:09        1.97
  YS02006556           JUNCTION     0.69     2.08     8.39     0  02:09        1.96
  YS02006558           JUNCTION     0.73     2.14     8.41     0  02:09        2.03
  YS02006561           JUNCTION     0.17     1.35     8.01     0  02:09        0.90
  YS02163301           JUNCTION     0.51     1.95     8.46     0  02:14        1.95
  YS02163601           JUNCTION     0.58     2.06     8.46     0  02:10        2.01
  YS02164001           JUNCTION     0.51     1.98     8.44     0  02:10        1.94
  CC-1                 OUTFALL      0.00     0.00     0.00     0  00:00        0.00
  CC-2                 OUTFALL      0.00     0.00     0.00     0  00:00        0.00
  JK-1                 OUTFALL      0.00     0.00     0.00     0  00:00        0.00
  JK-2                 OUTFALL      0.00     0.00     0.00     0  00:00        0.00
  WSC                  OUTFALL      0.17     0.30     0.97     0  03:05        0.30
  CC-storage           STORAGE      0.16     0.80     6.30     0  00:00        0.76
  JK-storage           STORAGE      0.12     2.99     3.79     0  00:00        0.68
  
  
  *******************
  Node Inflow Summary
  *******************
  
  -------------------------------------------------------------------------------------------------
                                  Maximum  Maximum                  Lateral       Total        Flow
                                  Lateral    Total  Time of Max      Inflow      Inflow     Balance
                                   Inflow   Inflow   Occurrence      Volume      Volume       Error
  Node                 Type           LPS      LPS  days hr:min    10^6 ltr    10^6 ltr     Percent
  -------------------------------------------------------------------------------------------------
  WS02003060           JUNCTION     16.53   551.36     0  03:03       0.471        4.83       0.042
  WS02003066           JUNCTION      0.00   534.37     0  03:03           0        4.36       0.035
  WS02003067           JUNCTION      0.00   534.23     0  03:02           0        4.36       0.094
  WS02003069           JUNCTION      0.32   551.33     0  03:04     0.00912        4.84       0.081
  WS02003072           JUNCTION      0.00   550.64     0  03:04           0        4.83       0.153
  WS02003073           JUNCTION      1.82   552.10     0  03:04      0.0519        4.88       0.115
  WS02004401           JUNCTION      0.00   543.46     0  02:50           0        4.46       0.230
  WS02004402           JUNCTION      0.00   541.98     0  02:50           0        4.45       0.234
  WS02004403           JUNCTION      0.00   543.53     0  02:50           0        4.44       0.227
  WS02004404           JUNCTION      0.16   551.63     0  02:53     0.00462        4.44       0.184
  WS02004405           JUNCTION      0.04   594.15     0  03:00     0.00109        4.43       0.211
  WS02004406           JUNCTION      0.00   539.93     0  02:53           0        4.42       0.472
  WS02004407           JUNCTION      0.00   535.90     0  03:01           0         4.4       0.022
  WS02004409           JUNCTION      0.00   535.55     0  03:01           0         4.4       0.056
  WS02004410           JUNCTION      0.00   535.46     0  03:01           0         4.4       0.102
  WS02004411           JUNCTION      0.00   535.05     0  03:02           0        4.39       0.128
  WS02004412           JUNCTION      0.00   534.81     0  03:02           0        4.39       0.171
  WS02004413           JUNCTION      0.00   534.59     0  03:02           0        4.38       0.317
  WS02006109           JUNCTION      1.23   590.74     0  02:49      0.0351         4.5       0.028
  WS02006110           JUNCTION      0.00   593.40     0  02:49           0         4.5       0.129
  WS02006111           JUNCTION      0.00   566.62     0  02:49           0        4.49       0.019
  WS02006112           JUNCTION      0.00   544.98     0  02:51           0        4.49       0.454
  WS02006113           JUNCTION      0.00   585.65     0  02:49           0        4.49       0.038
  WS02006115           JUNCTION      0.00   554.10     0  03:13           0        4.47       0.156
  WS02006116           JUNCTION      0.00   539.91     0  03:03           0        4.46      -0.013
  WS02006228           JUNCTION      0.00   585.36     0  02:49           0        4.46      -0.046
  WS02006229           JUNCTION      0.00   579.37     0  02:49           0        4.47       0.175
  WS02006230           JUNCTION     10.28   605.59     0  02:46       0.293        4.47       0.022
  WS02006231           JUNCTION      0.00   591.31     0  01:51           0        4.17      -0.203
  WS02006232           JUNCTION      0.00   589.11     0  01:51           0        4.19       0.452
  WS02006234           JUNCTION      0.00   579.48     0  01:51           0        4.17      -0.532
  WS02006235           JUNCTION      0.00   570.49     0  02:39           0        4.27       0.438
  WS02006238           JUNCTION      0.00   425.48     0  01:51           0        3.25      -0.406
  WS02006239           JUNCTION      0.00   424.53     0  01:51           0        3.19      -0.285
  WS02006240           JUNCTION      0.00   423.90     0  01:52           0        3.14      -0.163
  WS02006242           JUNCTION      0.00   424.04     0  01:52           0        3.12      -0.036
  WS02006243           JUNCTION      0.00   425.40     0  01:51           0        3.11      -0.177
  WS02006245           JUNCTION      0.00   425.51     0  01:51           0        3.13       0.725
  WS02006247           JUNCTION      0.00   426.13     0  01:51           0        3.13      -0.010
  WS02006248           JUNCTION      0.00   425.44     0  01:51           0        3.14       0.158
  WS02006249           JUNCTION      0.00   469.16     0  03:21           0        3.37       0.586
  WS02006251           JUNCTION      0.08   418.43     0  03:28     0.00219        3.37      -0.019
  WS02006252           JUNCTION      0.00   400.00     0  00:00           0        3.36      -0.084
  WS02006256           JUNCTION      0.00   300.00     0  00:00           0        1.54      -3.479
  WSF200               JUNCTION      0.00   534.46     0  03:03           0        4.36       0.009
  YS02001580           JUNCTION      0.00   129.13     0  02:06           0     0.00432      -0.305
  YS02001583           JUNCTION      0.00   173.92     0  02:06           0      0.0152      -4.980
  YS02001586           JUNCTION    618.28   618.28     0  02:15        1.31        1.32       0.103
  YS02001590           JUNCTION      0.00   318.08     0  02:21           0        1.11      -0.041
  YS02001593           JUNCTION      0.00   318.05     0  02:22           0        1.11       0.015
  YS02001596           JUNCTION      0.00   317.90     0  02:21           0        1.11       0.004
  YS02001600           JUNCTION      0.00   317.93     0  02:13           0        1.11       0.022
  YS02001601           JUNCTION   1144.48  1462.06     0  02:14        1.84        2.95       0.033
  YS02001602           JUNCTION      0.00   519.57     0  02:06           0        1.99       0.029
  YS02001605           JUNCTION      0.00   519.26     0  02:06           0        1.91       0.040
  YS02001607           JUNCTION      0.00   519.42     0  02:06           0        1.91       0.105
  YS02001610           JUNCTION      0.00   562.03     0  02:15           0           2       0.125
  YS02001613           JUNCTION      0.00   520.85     0  02:05           0         1.7       0.110
  YS02001616           JUNCTION      0.00   525.38     0  02:05           0         1.7       0.026
  YS02001619           JUNCTION   1103.99  1103.99     0  02:15        2.09         3.7       0.003
  YS02001622           JUNCTION      0.00   959.42     0  02:29           0        3.61       0.006
  YS02001625           JUNCTION      0.00  1178.20     0  02:15           0        3.69       0.242
  YS02001629           JUNCTION      0.00   959.01     0  02:29           0        3.17       0.031
  YS02001633           JUNCTION    860.24  1384.45     0  02:09        1.34        4.39       0.082
  YS02001641           JUNCTION      0.00  1384.70     0  02:09           0        4.29       0.070
  YS02001644           JUNCTION    771.76  1807.94     0  02:09        1.16        5.44       0.063
  YS02001647           JUNCTION      0.00  1807.50     0  02:09           0        5.26       0.009
  YS02001649           JUNCTION      0.00  2076.93     0  02:09           0        6.31       0.006
  YS02001652           JUNCTION      0.00   897.79     0  02:12           0        1.05      -0.077
  YS02001655           JUNCTION      0.15   897.53     0  02:12     0.00439        1.05       0.036
  YS02001658           JUNCTION      0.00   897.00     0  02:12           0        1.05      -0.081
  YS02001661           JUNCTION      0.00   892.10     0  02:12           0        1.05       0.007
  YS02001664           JUNCTION    753.78   753.78     0  02:14        1.05        1.05      -0.013
  YS02001745           JUNCTION    490.78   505.05     0  02:11       0.642       0.643       0.123
  YS02001748           JUNCTION      0.04   579.26     0  02:12     0.00128       0.644      -0.238
  YS02001751           JUNCTION      0.01   582.04     0  02:12    0.000313       0.652       0.104
  YS02001754           JUNCTION      0.26   581.49     0  02:12     0.00741       0.665      -0.143
  YS02001757           JUNCTION      0.00  3311.25     0  02:16           0        9.16       0.018
  YS02001759           JUNCTION    680.90  1345.28     0  02:11       0.884        2.18      -0.002
  YS02001762           JUNCTION      0.00   790.28     0  02:17           0         1.3       0.001
  YS02001765           JUNCTION      0.00   788.69     0  02:17           0         1.3       0.016
  YS02001767           JUNCTION      0.54   787.31     0  02:17      0.0152         1.3       0.009
  YS02001770           JUNCTION    950.95   950.95     0  02:14        1.36         1.4      -0.013
  YS02001774           JUNCTION      0.00   364.40     0  02:10           0       0.128       0.809
  YS02001779           JUNCTION      0.01   368.89     0  02:10    0.000142      0.0877      -0.467
  YS02001783           JUNCTION      0.00  1162.94     0  02:11           0        3.38       0.006
  YS02001784           JUNCTION      1.06  1163.88     0  02:12      0.0302        3.41       0.016
  YS02001786           JUNCTION      0.06  1164.21     0  02:11      0.0016        3.41       0.020
  YS02001788           JUNCTION      0.07  1164.72     0  02:11     0.00202        3.41       0.008
  YS02001790           JUNCTION      0.15  1175.55     0  02:13     0.00442        3.42       0.013
  YS02001791           JUNCTION      0.00  1283.36     0  02:14           0        3.42      -0.011
  YS02001793           JUNCTION      0.00  1259.57     0  02:14           0        3.42      -0.030
  YS02001882           JUNCTION      0.00    59.02     0  02:07           0      0.0127       6.427
  YS02001884           JUNCTION      0.00    77.28     0  02:07           0      0.0485       5.630
  YS02001887           JUNCTION    746.33   747.66     0  02:13       0.932       0.965       0.476
  YS02001890           JUNCTION      0.00   747.80     0  02:13           0       0.924       0.570
  YS02001895           JUNCTION      0.00   517.37     0  02:15           0       0.864       0.157
  YS02001898           JUNCTION      0.00   517.60     0  02:16           0       0.863       0.055
  YS02001901           JUNCTION      0.00   517.75     0  02:16           0       0.865       0.399
  YS02001904           JUNCTION      0.00   517.30     0  02:16           0       0.869       0.340
  YS02001907           JUNCTION      0.00  1800.98     0  02:14           0        2.91       0.627
  YS02001910           JUNCTION      0.00  1284.87     0  02:13           0        2.04       0.354
  YS02001915           JUNCTION    834.86  1284.58     0  02:13        1.29        2.09       0.080
  YS02001918           JUNCTION      0.00   453.28     0  02:13           0       0.829       0.007
  YS02001920           JUNCTION      2.87   452.74     0  02:13      0.0818       0.812       0.102
  YS02001923           JUNCTION      0.04   443.30     0  02:13     0.00107       0.714      -0.099
  YS02001926           JUNCTION      0.05   618.19     0  02:10     0.00149       0.694      -0.034
  YS02001929           JUNCTION    399.09   437.59     0  02:09       0.678       0.681      -0.024
  YS02006553           JUNCTION      0.00   800.42     0  02:27           0        2.07       0.581
  YS02006556           JUNCTION      0.00   800.73     0  02:27           0        2.08       0.401
  YS02006558           JUNCTION    974.37  1178.12     0  02:09        1.36        3.41       0.099
  YS02006561           JUNCTION      0.00  1177.86     0  02:09           0        3.38       0.003
  YS02163301           JUNCTION      0.00   961.76     0  02:29           0        3.15       0.055
  YS02163601           JUNCTION      0.11  1384.23     0  02:09     0.00313        4.29       0.119
  YS02164001           JUNCTION      0.00  1384.08     0  02:09           0        4.29       0.062
  CC-1                 OUTFALL       0.00   683.00     0  00:00           0           4       0.000
  CC-2                 OUTFALL       0.00   683.00     0  00:00           0           4       0.000
  JK-1                 OUTFALL       0.00  1000.00     0  00:00           0        1.05       0.000
  JK-2                 OUTFALL       0.00  1000.00     0  00:00           0        1.05       0.000
  WSC                  OUTFALL       0.00   551.67     0  03:05           0        4.87       0.000
  CC-storage           STORAGE       0.00  3312.62     0  02:17           0        11.4      -0.385
  JK-storage           STORAGE       0.00  1387.96     0  02:18           0        3.57      -1.703
  
  
  **********************
  Node Surcharge Summary
  **********************
  
  Surcharging occurs when water rises above the top of the highest conduit.
  ---------------------------------------------------------------------
                                               Max. Height   Min. Depth
                                   Hours       Above Crown    Below Rim
  Node                 Type      Surcharged         Meters       Meters
  ---------------------------------------------------------------------
  WS02004404           JUNCTION        0.01          0.008        2.772
  WS02006109           JUNCTION        1.64          0.629        1.191
  WS02006110           JUNCTION        0.50          0.618        1.232
  WS02006112           JUNCTION        1.24          0.089        1.591
  WS02006228           JUNCTION        1.63          0.550        1.650
  WS02006229           JUNCTION        1.66          0.668        1.782
  WS02006230           JUNCTION        0.52          0.716        0.854
  WS02006231           JUNCTION        0.95          1.003        0.527
  WS02006232           JUNCTION        1.72          1.330        0.150
  WS02006234           JUNCTION        1.21          1.240        0.000
  WS02006235           JUNCTION        1.45          1.290        0.000
  WS02006238           JUNCTION        1.60          1.430        0.000
  WS02006239           JUNCTION        1.59          1.290        0.000
  WS02006240           JUNCTION        1.62          1.390        0.000
  WS02006242           JUNCTION        1.77          0.820        0.000
  WS02006243           JUNCTION        1.62          0.770        0.000
  WS02006245           JUNCTION        1.62          0.850        0.000
  WS02006247           JUNCTION        1.65          0.760        0.000
  WS02006248           JUNCTION        1.60          0.380        0.000
  WS02006249           JUNCTION        1.63          0.390        0.000
  WS02006251           JUNCTION        1.23          0.547        0.633
  WS02006252           JUNCTION        2.34          1.100        0.000
  WS02006256           JUNCTION        5.76          2.050        0.000
  YS02001580           JUNCTION        0.47          0.450        0.000
  YS02001583           JUNCTION        0.48          0.364        0.136
  YS02001586           JUNCTION        0.56          0.510        0.000
  YS02001590           JUNCTION        0.63          0.749        0.001
  YS02001593           JUNCTION        0.63          0.832        0.008
  YS02001596           JUNCTION        0.73          0.982        0.088
  YS02001600           JUNCTION        0.86          1.190        0.000
  YS02001601           JUNCTION        1.20          1.440        0.000
  YS02001602           JUNCTION        1.09          1.270        0.000
  YS02001605           JUNCTION        1.04          1.180        0.000
  YS02001607           JUNCTION        0.57          0.680        0.000
  YS02001610           JUNCTION        0.59          0.680        0.000
  YS02001613           JUNCTION        0.56          0.700        0.000
  YS02001616           JUNCTION        0.52          0.610        0.000
  YS02001619           JUNCTION        0.51          0.610        0.000
  YS02001622           JUNCTION        0.50          0.617        0.003
  YS02001625           JUNCTION        0.67          0.780        0.000
  YS02001629           JUNCTION        0.41          0.470        0.000
  YS02001633           JUNCTION        0.68          1.014        0.046
  YS02001641           JUNCTION        0.57          0.970        0.130
  YS02001644           JUNCTION        0.51          0.920        0.000
  YS02001647           JUNCTION        0.30          0.809        0.091
  YS02001649           JUNCTION        0.33          1.050        0.000
  YS02001652           JUNCTION        0.24          1.057        0.073
  YS02001655           JUNCTION        0.18          1.075        0.125
  YS02001658           JUNCTION        0.12          0.956        0.344
  YS02001661           JUNCTION        0.01          0.530        0.860
  YS02001745           JUNCTION        0.01          0.626        0.724
  YS02001748           JUNCTION        0.07          0.818        0.372
  YS02001751           JUNCTION        0.14          0.963        0.237
  YS02001754           JUNCTION        0.18          1.009        0.141
  YS02001757           JUNCTION        0.31          1.191        0.019
  YS02001759           JUNCTION        0.27          1.163        0.047
  YS02001762           JUNCTION        0.26          1.135        0.015
  YS02001765           JUNCTION        0.25          1.078        0.022
  YS02001767           JUNCTION        0.24          1.011        0.019
  YS02001770           JUNCTION        0.23          0.920        0.000
  YS02001774           JUNCTION        0.27          1.006        0.044
  YS02001779           JUNCTION        0.20          0.680        0.000
  YS02001783           JUNCTION        0.44          0.770        0.830
  YS02001784           JUNCTION        0.41          0.501        0.989
  YS02001786           JUNCTION        0.32          0.170        1.260
  YS02001882           JUNCTION        0.39          0.649        0.181
  YS02001884           JUNCTION        0.40          0.685        0.185
  YS02001887           JUNCTION        0.43          0.775        0.175
  YS02001890           JUNCTION        0.44          0.760        0.000
  YS02001895           JUNCTION        0.38          0.578        0.172
  YS02001898           JUNCTION        0.37          0.618        0.122
  YS02001901           JUNCTION        0.42          0.708        0.162
  YS02001904           JUNCTION        0.41          0.646        0.204
  YS02001907           JUNCTION        0.63          0.950        0.000
  YS02001910           JUNCTION        0.46          0.987        0.113
  YS02001915           JUNCTION        0.39          0.943        0.057
  YS02001918           JUNCTION        0.31          0.810        0.000
  YS02001920           JUNCTION        0.32          1.140        0.000
  YS02001923           JUNCTION        0.03          0.820        0.000
  YS02001926           JUNCTION        0.06          0.900        0.000
  YS02001929           JUNCTION        0.01          0.780        0.000
  YS02006553           JUNCTION        0.64          1.038        0.152
  YS02006556           JUNCTION        0.54          1.043        0.307
  YS02006558           JUNCTION        0.53          1.042        0.358
  YS02006561           JUNCTION        0.28          0.548        0.602
  YS02163301           JUNCTION        0.66          0.946        0.084
  YS02163601           JUNCTION        0.70          1.061        0.019
  YS02164001           JUNCTION        0.59          0.980        0.120
  
  
  *********************
  Node Flooding Summary
  *********************
  
  Flooding refers to all water that overflows a node, whether it ponds or not.
  --------------------------------------------------------------------------
                                                             Total   Maximum
                                 Maximum   Time of Max       Flood    Ponded
                        Hours       Rate    Occurrence      Volume     Depth
  Node                 Flooded       LPS   days hr:min    10^6 ltr    Meters
  --------------------------------------------------------------------------
  WS02006234              0.01    149.01      0  02:39       0.001     0.000
  WS02006235              0.01     37.11      0  02:46       0.000     0.000
  WS02006238              0.01     31.62      0  02:46       0.000     0.000
  WS02006239              0.01     12.85      0  02:46       0.000     0.000
  WS02006240              0.01     14.82      0  02:46       0.000     0.000
  WS02006242              0.02     37.64      0  02:46       0.001     0.000
  WS02006243              0.01      5.75      0  02:02       0.000     0.000
  WS02006245              0.01      4.68      0  02:02       0.000     0.000
  WS02006247              0.01      3.68      0  02:02       0.000     0.000
  WS02006248              0.16     31.90      0  02:09       0.008     0.000
  WS02006249              1.12    109.95      0  03:28       0.205     0.000
  WS02006252              0.01    245.63      0  00:00       0.000     0.000
  WS02006256              1.42    293.19      0  00:00       0.539     0.000
  YS02001580              0.01    108.64      0  02:06       0.000     0.000
  YS02001586              0.37    300.86      0  02:15       0.203     0.000
  YS02001600              0.01      1.46      0  02:06       0.000     0.000
  YS02001601              0.49   1064.08      0  02:14       0.966     0.000
  YS02001602              0.35     61.99      0  02:11       0.070     0.000
  YS02001605              0.01      3.79      0  02:06       0.000     0.000
  YS02001607              0.01      5.69      0  02:06       0.000     0.000
  YS02001610              0.31    561.72      0  02:15       0.387     0.000
  YS02001613              0.01      9.76      0  02:06       0.000     0.000
  YS02001616              0.01     16.17      0  02:06       0.000     0.000
  YS02001619              0.01     13.57      0  02:06       0.000     0.000
  YS02001625              0.26   1177.62      0  02:15       0.617     0.000
  YS02001629              0.08    209.08      0  02:13       0.036     0.000
  YS02001644              0.11    761.90      0  02:13       0.173     0.000
  YS02001649              0.01     11.29      0  02:12       0.000     0.000
  YS02001770              0.01     21.51      0  02:11       0.000     0.000
  YS02001779              0.10    324.02      0  02:13       0.072     0.000
  YS02001890              0.13    233.93      0  02:13       0.055     0.000
  YS02001907              0.26   1617.03      0  02:14       0.828     0.000
  YS02001918              0.01    203.56      0  02:10       0.003     0.000
  YS02001920              0.01     82.65      0  02:10       0.000     0.000
  YS02001923              0.01    156.86      0  02:10       0.000     0.000
  YS02001926              0.01    355.88      0  02:10       0.002     0.000
  YS02001929              0.01     83.22      0  02:10       0.000     0.000
  
  
  **********************
  Storage Volume Summary
  **********************
  
  ------------------------------------------------------------------------------------------------
                         Average    Avg   Evap  Exfil     Maximum    Max    Time of Max    Maximum
                          Volume   Pcnt   Pcnt   Pcnt      Volume   Pcnt     Occurrence    Outflow
  Storage Unit           1000 m³   Full   Loss   Loss     1000 m³   Full    days hr:min        LPS
  ------------------------------------------------------------------------------------------------
  CC-storage               0.455    7.1    0.0    0.0       2.229   34.8       0  00:00    1783.53
  JK-storage               0.006    2.1    0.0    0.0       0.150   51.6       0  00:00    2300.00
  
  
  ***********************
  Outfall Loading Summary
  ***********************
  
  -----------------------------------------------------------
                         Flow       Avg       Max       Total
                         Freq      Flow      Flow      Volume
  Outfall Node           Pcnt       LPS       LPS    10^6 ltr
  -----------------------------------------------------------
  CC-1                  38.35    683.00    683.00       4.001
  CC-2                  38.35    683.00    683.00       4.001
  JK-1                   7.20   1000.00   1000.00       1.047
  JK-2                   7.20   1000.00   1000.00       1.047
  WSC                   99.94    246.08    551.67       4.871
  -----------------------------------------------------------
  System                38.21   3612.08   3901.36      14.967
  
  
  ********************
  Link Flow Summary
  ********************
  
  -----------------------------------------------------------------------------
                                 Maximum  Time of Max   Maximum    Max/    Max/
                                  |Flow|   Occurrence   |Veloc|    Full    Full
  Link                 Type          LPS  days hr:min     m/sec    Flow   Depth
  -----------------------------------------------------------------------------
  1                    CONDUIT    551.67     0  03:05      2.82    0.19    0.30
  WS02003060WS02003069 CONDUIT    551.01     0  03:04      1.64    0.22    0.34
  WS02003066WSF200     CONDUIT    534.46     0  03:03      2.85    0.09    0.22
  WS02003067WS02003066 CONDUIT    534.37     0  03:03      1.20    0.17    0.41
  WS02003069WS02003072 CONDUIT    550.64     0  03:04      1.37    0.27    0.39
  WS02003072WS02003073 CONDUIT    550.28     0  03:04      1.43    1.19    0.37
  WS02004401WS02004402 CONDUIT    541.98     0  02:50      1.22    0.65    0.89
  WS02004402WS02004403 CONDUIT    543.53     0  02:50      1.24    0.78    0.91
  WS02004403WS02004404 CONDUIT    551.47     0  02:53      1.24    0.40    0.96
  WS02004404WS02004405 CONDUIT    594.11     0  03:00      1.45    5.82    0.98
  WS02004405WS02004406 CONDUIT    539.93     0  02:53      1.46    1.07    0.96
  WS02004406WS02004407 CONDUIT    535.90     0  03:01      1.04    0.24    0.63
  WS02004407WS02004409 CONDUIT    535.55     0  03:01      1.59    0.19    0.48
  WS02004409WS02004410 CONDUIT    535.46     0  03:01      1.06    0.69    0.67
  WS02004410WS02004411 CONDUIT    535.05     0  03:02      1.12    0.73    0.68
  WS02004411WS02004412 CONDUIT    534.81     0  03:02      1.22    0.76    0.69
  WS02004412WS02004413 CONDUIT    534.59     0  03:02      1.22    0.36    0.78
  WS02004413WS02003067 CONDUIT    534.23     0  03:02      1.11    0.23    0.59
  WS02006109WS02006110 CONDUIT    593.40     0  02:49      1.18    1.14    1.00
  WS02006110WS02006113 CONDUIT    585.65     0  02:49      1.40    0.53    0.79
  WS02006111WS02006112 CONDUIT    544.98     0  02:51      1.95    0.26    0.67
  WS02006112WS02006115 CONDUIT    554.10     0  03:13      0.89    0.33    0.88
  WS02006113WS02006111 CONDUIT    566.62     0  02:49      2.48    0.68    0.46
  WS02006115WS02006116 CONDUIT    539.91     0  03:03      1.29    0.69    0.78
  WS02006116WS02004401 CONDUIT    543.46     0  02:50      1.21    0.75    0.86
  WS02006228WS02006109 CONDUIT    589.51     0  02:49      1.17    2.58    1.00
  WS02006229WS02006228 CONDUIT    585.36     0  02:49      1.16    1.94    1.00
  WS02006230WS02006229 CONDUIT    579.37     0  02:49      1.51   12.89    1.00
  WS02006231WS02006230 CONDUIT    595.31     0  02:46      1.62    9.03    1.00
  WS02006232WS02006231 CONDUIT    591.31     0  01:51      1.54    1.24    1.00
  WS02006234WS02006232 CONDUIT    589.11     0  01:51      1.53    1.19    1.00
  WS02006235WS02006234 CONDUIT    579.48     0  01:51      1.51    6.11    1.00
  WS02006238WS02006235 CONDUIT    425.74     0  03:00      1.45    0.95    1.00
  WS02006239WS02006238 CONDUIT    425.48     0  01:51      1.18    1.36    1.00
  WS02006240WS02006239 CONDUIT    424.53     0  01:51      1.28    1.34    1.00
  WS02006242WS02006240 CONDUIT    423.90     0  01:52      1.16    1.68    1.00
  WS02006243WS02006242 CONDUIT    424.04     0  01:52      1.42    0.91    1.00
  WS02006245WS02006243 CONDUIT    425.40     0  01:51      1.44    1.26    1.00
  WS02006247WS02006245 CONDUIT    425.51     0  01:51      1.43    3.37    1.00
  WS02006248WS02006247 CONDUIT    426.13     0  01:51      1.44    0.93    1.00
  WS02006249WS02006248 CONDUIT    425.44     0  01:51      1.38    2.33    1.00
  WS02006251WS02006249 CONDUIT    469.16     0  03:21      1.99    1.35    1.00
  WS02006252WS02006251 CONDUIT    418.35     0  03:28     24.91    1.54    1.00
  WS02006256WS02006235 CONDUIT    288.91     0  00:00      4.23    3.06    1.00
  WSF200WS02003060     CONDUIT    534.84     0  03:03      2.06    0.12    0.28
  YS02001580YS02001583 CONDUIT    129.13     0  02:06      0.69    0.50    1.00
  YS02001583YS02001586 CONDUIT    162.99     0  02:06      0.68    0.25    1.00
  YS02001586YS02001590 CONDUIT    318.08     0  02:21      1.26    0.56    1.00
  YS02001590YS02001593 CONDUIT    318.05     0  02:22      1.12    2.00    1.00
  YS02001593YS02001596 CONDUIT    317.90     0  02:21      1.76    0.50    1.00
  YS02001596YS02001600 CONDUIT    317.93     0  02:13      1.24    0.62    1.00
  YS02001600YS02001601 CONDUIT    317.93     0  02:21      1.12    0.55    1.00
  YS02001601YS02001602 CONDUIT    519.57     0  02:06      1.84    1.88    1.00
  YS02001602YS02001605 CONDUIT    519.26     0  02:06      1.84   10.99    1.00
  YS02001605YS02001607 CONDUIT    519.42     0  02:06      1.84    2.85    1.00
  YS02001607YS02001610 CONDUIT    519.67     0  02:05      0.66    0.49    1.00
  YS02001610YS02001613 CONDUIT    520.85     0  02:05      0.66    0.60    1.00
  YS02001613YS02001616 CONDUIT    525.38     0  02:05      0.67    0.45    1.00
  YS02001616YS02001619 CONDUIT    511.81     0  02:35      0.68    0.89    1.00
  YS02001619YS02001622 CONDUIT    959.42     0  02:29      1.22    1.41    1.00
  YS02001622YS02001625 CONDUIT    958.96     0  02:29      1.22    0.51    1.00
  YS02001625YS02001629 CONDUIT    959.01     0  02:29      1.22    0.46    1.00
  YS02001629YS02163301 CONDUIT    961.76     0  02:29      1.22    1.18    1.00
  YS02001633YS02163601 CONDUIT   1384.12     0  02:09      1.76    1.45    1.00
  YS02001641YS02001644 CONDUIT   1385.37     0  02:09      1.76    4.48    1.00
  YS02001644YS02001647 CONDUIT   1807.50     0  02:09      2.30    1.06    1.00
  YS02001647YS02001649 CONDUIT   1818.17     0  02:09      2.32    0.96    1.00
  YS02001649YS02001757 CONDUIT   2083.12     0  02:09      2.65    1.26    1.00
  YS02001652YS02001649 CONDUIT    898.09     0  02:12      1.14    0.45    1.00
  YS02001655YS02001652 CONDUIT    897.79     0  02:12      1.29    0.44    1.00
  YS02001658YS02001655 CONDUIT    897.37     0  02:12      1.90    0.38    1.00
  YS02001661YS02001658 CONDUIT    897.00     0  02:12      2.34    0.35    1.00
  YS02001664YS02001661 CONDUIT    892.10     0  02:12      2.36    0.28    0.90
  YS02001745YS02001748 CONDUIT    579.22     0  02:12      2.22    0.22    1.00
  YS02001748YS02001751 CONDUIT    582.03     0  02:12      1.71    0.29    1.00
  YS02001751YS02001754 CONDUIT    581.23     0  02:12      1.40    0.28    1.00
  YS02001754YS02001757 CONDUIT    583.64     0  02:11      0.74    0.24    1.00
  YS02001757CaochengTiaoxuchi CONDUIT   3312.62     0  02:17      7.19    1.43    0.78
  YS02001759YS02001757 CONDUIT   1344.94     0  02:11      1.71    0.96    1.00
  YS02001762YS02001759 CONDUIT    791.64     0  02:17      1.01    0.91    1.00
  YS02001765YS02001762 CONDUIT    790.28     0  02:17      1.01    0.74    1.00
  YS02001767YS02001765 CONDUIT    788.69     0  02:17      1.00    0.99    1.00
  YS02001770YS02001767 CONDUIT    786.77     0  02:17      1.00    3.12    1.00
  YS02001774YS02001770 CONDUIT    364.40     0  02:10      0.46    0.23    1.00
  YS02001779YS02001774 CONDUIT    368.89     0  02:10      0.47    0.19    1.00
  YS02001783YS02001784 CONDUIT   1162.82     0  02:12      2.31    1.60    1.00
  YS02001784YS02001785 CONDUIT   1164.15     0  02:11      2.32    2.71    1.00
  YS02001786YS02001788 CONDUIT   1164.65     0  02:11      2.49    2.24    0.89
  YS02001788YS02001790 CONDUIT   1175.39     0  02:13      2.72    0.87    0.84
  YS02001790YS02001791 CONDUIT   1283.36     0  02:14      3.42    1.40    0.70
  YS02001791YS02001793 CONDUIT   1259.57     0  02:14      6.76    0.54    0.44
  YS02001793JiankangQianchi CONDUIT   1387.96     0  02:18     22.12    0.11    0.50
  YS02001882YS02001884 CONDUIT     59.02     0  02:07      0.09    0.07    1.00
  YS02001884YS02001887 CONDUIT     77.28     0  02:07      0.10    0.10    1.00
  YS02001887YS02001890 CONDUIT    747.80     0  02:13      0.95    1.28    1.00
  YS02001890YS02001895 CONDUIT    517.37     0  02:15      0.66    0.24    1.00
  YS02001895YS02001898 CONDUIT    517.60     0  02:16      0.66    0.90    1.00
  YS02001898YS02001901 CONDUIT    517.75     0  02:16      0.66    0.33    1.00
  YS02001901YS02001904 CONDUIT    517.30     0  02:16      0.66    0.80    1.00
  YS02001904YS02001907 CONDUIT    517.57     0  02:16      0.66    0.18    1.00
  YS02001907YS02006553 CONDUIT    800.42     0  02:27      0.89    0.94    1.00
  YS02001910YS02001907 CONDUIT   1284.96     0  02:13      1.64    0.72    1.00
  YS02001915YS02001910 CONDUIT   1284.87     0  02:13      1.64    0.64    1.00
  YS02001918YS02001915 CONDUIT    454.05     0  02:13      0.58    0.25    1.00
  YS02001920YS02001918 CONDUIT    453.28     0  02:13      0.67    0.44    1.00
  YS02001923YS02001920 CONDUIT    449.87     0  02:13      0.70    0.20    1.00
  YS02001926YS02001923 CONDUIT    443.26     0  02:13      0.96    0.63    1.00
  YS02001929YS02001926 CONDUIT    440.41     0  02:13      1.13    0.21    1.00
  YS02006553YS02006556 CONDUIT    800.73     0  02:27      1.02    0.69    1.00
  YS02006556YS02006558 CONDUIT    801.50     0  02:27      1.02    0.63    1.00
  YS02006558YS02006561 CONDUIT   1177.86     0  02:09      4.17    2.60    1.00
  YS02006561YS02001783 CONDUIT   1162.94     0  02:11      2.31    0.60    1.00
  YS02163301YS02001633 CONDUIT    960.91     0  02:29      1.22    0.90    1.00
  YS02163601YS02164001 CONDUIT   1384.08     0  02:09      1.76    1.23    1.00
  YS02164001YS02001641 CONDUIT   1384.70     0  02:09      1.76    1.89    1.00
  CC-R1                PUMP       683.00     0  00:00              1.00
  CC-R2                PUMP       683.00     0  00:00              1.00
  CC-S1                PUMP       200.00     0  00:00              1.00
  CC-S2                PUMP       200.00     0  00:00              1.00
  JK-R1                PUMP      1000.00     0  00:00              1.00
  JK-R2                PUMP      1000.00     0  00:00              1.00
  JK-S                 PUMP       300.00     0  00:00              1.00
  
  
  ***************************
  Flow Classification Summary
  ***************************
  
  -------------------------------------------------------------------------------------
                      Adjusted    ---------- Fraction of Time in Flow Class ---------- 
                       /Actual         Up    Down  Sub   Sup   Up    Down  Norm  Inlet 
  Conduit               Length    Dry  Dry   Dry   Crit  Crit  Crit  Crit  Ltd   Ctrl  
  -------------------------------------------------------------------------------------
  1                       1.00   0.00  0.00  0.00  0.00  1.00  0.00  0.00  0.43  0.00
  WS02003060WS02003069    1.00   0.00  0.00  0.00  0.97  0.03  0.00  0.00  0.74  0.00
  WS02003066WSF200        1.00   0.05  0.00  0.00  0.00  0.95  0.00  0.00  0.84  0.00
  WS02003067WS02003066    1.00   0.05  0.00  0.00  0.95  0.00  0.00  0.00  0.00  0.00
  WS02003069WS02003072    1.00   0.00  0.00  0.00  0.99  0.01  0.00  0.00  0.78  0.00
  WS02003072WS02003073    1.00   0.00  0.00  0.00  0.00  0.00  0.00  1.00  0.00  0.00
  WS02004401WS02004402    1.00   0.02  0.00  0.00  0.98  0.00  0.00  0.00  0.00  0.00
  WS02004402WS02004403    1.00   0.02  0.00  0.00  0.98  0.00  0.00  0.00  0.00  0.00
  WS02004403WS02004404    1.00   0.00  0.03  0.00  0.97  0.00  0.00  0.00  0.00  0.00
  WS02004404WS02004405    1.00   0.00  0.00  0.00  1.00  0.00  0.00  0.00  0.02  0.00
  WS02004405WS02004406    1.00   0.00  0.00  0.00  1.00  0.00  0.00  0.00  0.00  0.00
  WS02004406WS02004407    1.00   0.00  0.03  0.00  0.97  0.00  0.00  0.00  0.00  0.00
  WS02004407WS02004409    1.00   0.03  0.00  0.00  0.95  0.02  0.00  0.00  0.95  0.00
  WS02004409WS02004410    1.00   0.03  0.00  0.00  0.96  0.00  0.00  0.00  0.00  0.00
  WS02004410WS02004411    1.00   0.04  0.00  0.00  0.96  0.00  0.00  0.00  0.00  0.00
  WS02004411WS02004412    1.00   0.04  0.00  0.00  0.96  0.00  0.00  0.00  0.00  0.00
  WS02004412WS02004413    1.00   0.04  0.00  0.00  0.96  0.00  0.00  0.00  0.00  0.00
  WS02004413WS02003067    1.00   0.04  0.01  0.00  0.00  0.00  0.95  0.00  0.00  0.00
  WS02006109WS02006110    1.00   0.00  0.01  0.00  0.98  0.00  0.01  0.00  0.00  0.00
  WS02006110WS02006113    1.00   0.01  0.01  0.00  0.98  0.00  0.00  0.00  0.00  0.00
  WS02006111WS02006112    1.00   0.02  0.00  0.00  0.98  0.00  0.00  0.00  0.98  0.00
  WS02006112WS02006115    1.00   0.02  0.00  0.00  0.97  0.00  0.00  0.00  0.00  0.00
  WS02006113WS02006111    1.00   0.02  0.00  0.00  0.00  0.98  0.00  0.00  0.16  0.00
  WS02006115WS02006116    1.00   0.02  0.00  0.00  0.97  0.00  0.00  0.01  0.00  0.00
  WS02006116WS02004401    1.00   0.02  0.00  0.00  0.98  0.00  0.00  0.00  0.00  0.00
  WS02006228WS02006109    1.00   0.00  0.00  0.00  1.00  0.00  0.00  0.00  0.01  0.00
  WS02006229WS02006228    1.00   0.00  0.00  0.00  0.99  0.00  0.00  0.01  0.00  0.00
  WS02006230WS02006229    1.00   0.00  0.00  0.00  0.99  0.00  0.00  0.01  0.02  0.00
  WS02006231WS02006230    1.00   0.00  0.00  0.00  0.23  0.00  0.77  0.00  0.00  0.00
  WS02006232WS02006231    1.00   0.00  0.00  0.00  0.98  0.00  0.02  0.00  0.00  0.00
  WS02006234WS02006232    1.00   0.00  0.00  0.00  1.00  0.00  0.00  0.00  0.07  0.00
  WS02006235WS02006234    1.00   0.00  0.00  0.00  0.90  0.00  0.10  0.00  0.00  0.00
  WS02006238WS02006235    1.00   0.00  0.00  0.00  1.00  0.00  0.00  0.00  0.00  0.00
  WS02006239WS02006238    1.00   0.00  0.00  0.00  1.00  0.00  0.00  0.00  0.26  0.00
  WS02006240WS02006239    1.00   0.00  0.00  0.00  0.63  0.00  0.00  0.36  0.05  0.00
  WS02006242WS02006240    1.00   0.00  0.00  0.00  0.99  0.00  0.01  0.00  0.02  0.00
  WS02006243WS02006242    1.00   0.00  0.00  0.00  0.99  0.00  0.00  0.01  0.61  0.00
  WS02006245WS02006243    1.00   0.00  0.00  0.00  0.59  0.00  0.00  0.41  0.01  0.00
  WS02006247WS02006245    1.00   0.00  0.00  0.00  0.98  0.00  0.00  0.01  0.00  0.00
  WS02006248WS02006247    1.00   0.00  0.00  0.00  0.99  0.00  0.00  0.01  0.25  0.00
  WS02006249WS02006248    1.00   0.00  0.00  0.00  0.38  0.00  0.62  0.00  0.00  0.00
  WS02006251WS02006249    1.00   0.00  0.00  0.00  1.00  0.00  0.00  0.00  0.64  0.00
  WS02006252WS02006251    1.00   0.00  0.66  0.00  0.16  0.00  0.18  0.00  0.00  0.00
  WS02006256WS02006235    1.00   0.00  0.00  0.00  0.98  0.02  0.00  0.00  0.00  0.00
  WSF200WS02003060        1.00   0.00  0.05  0.00  0.38  0.57  0.00  0.00  0.68  0.00
  YS02001580YS02001583    1.00   0.26  0.57  0.00  0.17  0.00  0.00  0.00  0.66  0.00
  YS02001583YS02001586    1.00   0.42  0.35  0.00  0.23  0.00  0.00  0.00  0.66  0.00
  YS02001586YS02001590    1.00   0.13  0.00  0.00  0.42  0.05  0.00  0.41  0.38  0.00
  YS02001590YS02001593    1.00   0.13  0.01  0.00  0.09  0.00  0.77  0.00  0.00  0.00
  YS02001593YS02001596    1.00   0.14  0.00  0.00  0.11  0.01  0.00  0.74  0.02  0.00
  YS02001596YS02001600    1.00   0.14  0.00  0.00  0.17  0.01  0.00  0.67  0.05  0.00
  YS02001600YS02001601    1.00   0.13  0.01  0.00  0.86  0.00  0.00  0.00  0.62  0.00
  YS02001601YS02001602    1.00   0.13  0.01  0.00  0.86  0.00  0.00  0.00  0.00  0.00
  YS02001602YS02001605    1.00   0.14  0.00  0.00  0.86  0.00  0.00  0.00  0.00  0.00
  YS02001605YS02001607    1.00   0.14  0.00  0.00  0.86  0.00  0.00  0.00  0.00  0.00
  YS02001607YS02001610    1.00   0.13  0.01  0.00  0.86  0.00  0.00  0.00  0.02  0.00
  YS02001610YS02001613    1.00   0.13  0.00  0.00  0.87  0.00  0.00  0.00  0.01  0.00
  YS02001613YS02001616    1.00   0.13  0.00  0.00  0.87  0.00  0.00  0.00  0.01  0.00
  YS02001616YS02001619    1.00   0.13  0.00  0.00  0.87  0.00  0.00  0.00  0.00  0.00
  YS02001619YS02001622    1.00   0.13  0.00  0.00  0.87  0.00  0.00  0.00  0.28  0.00
  YS02001622YS02001625    1.00   0.13  0.00  0.00  0.87  0.00  0.00  0.00  0.06  0.00
  YS02001625YS02001629    1.00   0.13  0.06  0.00  0.13  0.00  0.68  0.00  0.00  0.00
  YS02001629YS02163301    1.00   0.17  0.01  0.00  0.82  0.00  0.00  0.00  0.00  0.00
  YS02001633YS02163601    1.00   0.00  0.01  0.00  0.99  0.00  0.00  0.00  0.16  0.00
  YS02001641YS02001644    1.00   0.00  0.01  0.00  0.99  0.00  0.00  0.00  0.00  0.00
  YS02001644YS02001647    1.00   0.00  0.19  0.00  0.81  0.00  0.00  0.00  0.00  0.00
  YS02001647YS02001649    1.00   0.00  0.19  0.00  0.49  0.32  0.00  0.00  0.56  0.00
  YS02001649YS02001757    1.00   0.00  0.00  0.00  0.79  0.21  0.00  0.00  0.64  0.00
  YS02001652YS02001649    1.00   0.00  0.00  0.00  0.96  0.04  0.00  0.00  0.77  0.00
  YS02001655YS02001652    1.00   0.00  0.00  0.00  0.15  0.01  0.00  0.83  0.08  0.00
  YS02001658YS02001655    1.00   0.00  0.15  0.00  0.59  0.26  0.00  0.00  0.75  0.00
  YS02001661YS02001658    1.00   0.15  0.00  0.00  0.43  0.42  0.00  0.00  0.73  0.00
  YS02001664YS02001661    1.00   0.13  0.00  0.00  0.76  0.11  0.00  0.00  0.86  0.00
  YS02001745YS02001748    1.00   0.00  0.00  0.00  0.03  0.01  0.00  0.97  0.01  0.00
  YS02001748YS02001751    1.00   0.00  0.00  0.00  0.76  0.24  0.00  0.00  0.82  0.00
  YS02001751YS02001754    1.00   0.00  0.00  0.00  0.09  0.01  0.00  0.90  0.04  0.00
  YS02001754YS02001757    1.00   0.00  0.00  0.00  1.00  0.00  0.00  0.00  0.88  0.00
  YS02001757CaochengTiaoxuchi    1.00   0.00  0.00  0.00  0.04  0.96  0.00  0.00  0.16  0.00
  YS02001759YS02001757    1.00   0.00  0.00  0.00  1.00  0.00  0.00  0.00  0.68  0.00
  YS02001762YS02001759    1.00   0.00  0.00  0.00  1.00  0.00  0.00  0.00  0.08  0.00
  YS02001765YS02001762    1.00   0.00  0.00  0.00  1.00  0.00  0.00  0.00  0.75  0.00
  YS02001767YS02001765    1.00   0.00  0.00  0.00  1.00  0.00  0.00  0.00  0.00  0.00
  YS02001770YS02001767    1.00   0.00  0.00  0.00  1.00  0.00  0.00  0.00  0.00  0.00
  YS02001774YS02001770    1.00   0.00  0.14  0.00  0.70  0.00  0.16  0.00  0.04  0.00
  YS02001779YS02001774    1.00   0.00  0.00  0.00  1.00  0.00  0.00  0.00  0.81  0.00
  YS02001783YS02001784    1.00   0.00  0.20  0.00  0.80  0.00  0.00  0.00  0.56  0.00
  YS02001784YS02001785    1.00   0.00  0.00  0.00  1.00  0.00  0.00  0.00  0.18  0.00
  YS02001786YS02001788    1.00   0.00  0.00  0.00  0.80  0.20  0.00  0.00  0.00  0.00
  YS02001788YS02001790    1.00   0.00  0.00  0.00  0.22  0.78  0.00  0.00  0.82  0.00
  YS02001790YS02001791    1.00   0.00  0.00  0.00  0.01  0.99  0.00  0.00  0.15  0.00
  YS02001791YS02001793    1.00   0.00  0.00  0.00  0.00  1.00  0.00  0.00  0.01  0.00
  YS02001793JiankangQianchi    1.00   0.00  0.00  0.00  0.46  0.53  0.00  0.00  0.84  0.00
  YS02001882YS02001884    1.00   0.16  0.01  0.00  0.83  0.00  0.00  0.00  0.00  0.00
  YS02001884YS02001887    1.00   0.06  0.05  0.00  0.89  0.00  0.00  0.00  0.00  0.00
  YS02001887YS02001890    1.00   0.00  0.00  0.00  0.97  0.00  0.03  0.00  0.00  0.00
  YS02001890YS02001895    1.00   0.00  0.18  0.00  0.82  0.00  0.00  0.00  0.00  0.00
  YS02001895YS02001898    1.00   0.18  0.00  0.00  0.80  0.00  0.02  0.00  0.00  0.00
  YS02001898YS02001901    1.00   0.18  0.00  0.00  0.82  0.00  0.00  0.00  0.01  0.00
  YS02001901YS02001904    1.00   0.18  0.00  0.00  0.82  0.00  0.00  0.00  0.00  0.00
  YS02001904YS02001907    1.00   0.00  0.17  0.00  0.82  0.00  0.00  0.00  0.00  0.00
  YS02001907YS02006553    1.00   0.00  0.02  0.00  0.98  0.00  0.00  0.00  0.00  0.00
  YS02001910YS02001907    1.00   0.00  0.00  0.00  0.97  0.00  0.00  0.03  0.12  0.00
  YS02001915YS02001910    1.00   0.00  0.00  0.00  0.96  0.04  0.00  0.00  0.17  0.00
  YS02001918YS02001915    1.00   0.00  0.01  0.00  0.98  0.02  0.00  0.00  0.77  0.00
  YS02001920YS02001918    1.00   0.00  0.01  0.00  0.99  0.00  0.00  0.00  0.00  0.00
  YS02001923YS02001920    1.00   0.00  0.00  0.00  1.00  0.00  0.00  0.00  0.94  0.00
  YS02001926YS02001923    1.00   0.00  0.07  0.00  0.05  0.00  0.88  0.00  0.00  0.00
  YS02001929YS02001926    1.00   0.00  0.13  0.00  0.87  0.00  0.00  0.00  0.83  0.00
  YS02006553YS02006556    1.00   0.01  0.00  0.00  0.99  0.00  0.00  0.00  0.03  0.00
  YS02006556YS02006558    1.00   0.00  0.00  0.00  1.00  0.00  0.00  0.00  0.00  0.00
  YS02006558YS02006561    1.00   0.20  0.00  0.00  0.05  0.76  0.00  0.00  0.19  0.00
  YS02006561YS02001783    1.00   0.20  0.00  0.00  0.07  0.73  0.00  0.00  0.69  0.00
  YS02163301YS02001633    1.00   0.00  0.17  0.00  0.83  0.00  0.00  0.00  0.00  0.00
  YS02163601YS02164001    1.00   0.00  0.08  0.00  0.92  0.00  0.00  0.00  0.00  0.00
  YS02164001YS02001641    1.00   0.01  0.08  0.00  0.92  0.00  0.00  0.00  0.06  0.00
  
  
  *************************
  Conduit Surcharge Summary
  *************************
  
  ----------------------------------------------------------------------------
                                                           Hours        Hours 
                         --------- Hours Full --------   Above Full   Capacity
  Conduit                Both Ends  Upstream  Dnstream   Normal Flow   Limited
  ----------------------------------------------------------------------------
  WS02003072WS02003073        0.01      0.01      0.01      1.32         0.01
  WS02004403WS02004404        0.01      0.01      0.01      0.01         0.01
  WS02004404WS02004405        0.01      0.01      0.01      3.01         0.01
  WS02004405WS02004406        0.01      0.01      0.01      0.99         0.01
  WS02006109WS02006110        0.49      0.49      1.71      0.69         0.01
  WS02006110WS02006113        0.01      0.01      1.69      0.01         0.01
  WS02006111WS02006112        0.01      0.01      1.91      0.01         0.01
  WS02006112WS02006115        0.01      0.01      1.24      0.01         0.01
  WS02006228WS02006109        1.64      1.71      1.64      2.26         1.64
  WS02006229WS02006228        1.63      1.66      1.63      2.00         1.61
  WS02006230WS02006229        1.79      1.92      1.79      3.56         1.79
  WS02006231WS02006230        0.51      0.51      1.14      3.07         0.01
  WS02006232WS02006231        0.95      0.95      1.72      1.05         0.01
  WS02006234WS02006232        1.43      1.43      1.72      1.00         0.91
  WS02006235WS02006234        1.16      1.20      1.44      2.82         0.09
  WS02006238WS02006235        1.50      1.50      1.74      0.01         0.05
  WS02006239WS02006238        1.60      1.72      1.60      1.91         1.30
  WS02006240WS02006239        1.57      1.64      1.59      1.94         1.24
  WS02006242WS02006240        1.62      1.62      1.84      2.15         0.03
  WS02006243WS02006242        1.63      1.63      1.77      0.01         0.22
  WS02006245WS02006243        1.62      1.63      1.62      1.63         0.90
  WS02006247WS02006245        1.62      1.67      1.62      2.33         1.51
  WS02006248WS02006247        1.62      1.62      1.65      0.01         0.26
  WS02006249WS02006248        1.60      1.60      1.63      2.31         0.01
  WS02006251WS02006249        1.63      1.65      1.63      2.25         1.45
  WS02006252WS02006251        2.33      2.33      2.33      2.34         0.01
  WS02006256WS02006235        2.72      2.93      5.59      1.45         0.01
  YS02001580YS02001583        0.47      0.47      0.49      0.01         0.01
  YS02001583YS02001586        0.48      0.48      0.56      0.01         0.01
  YS02001586YS02001590        0.57      0.57      0.63      0.01         0.01
  YS02001590YS02001593        0.63      0.63      0.64      0.67         0.01
  YS02001593YS02001596        0.64      0.64      0.73      0.01         0.01
  YS02001596YS02001600        0.77      0.77      0.86      0.01         0.01
  YS02001600YS02001601        0.92      0.92      1.20      0.01         0.01
  YS02001601YS02001602        1.09      1.09      1.24      0.88         0.01
  YS02001602YS02001605        1.04      1.04      1.09      2.07         0.01
  YS02001605YS02001607        0.99      1.04      0.99      1.17         0.99
  YS02001607YS02001610        0.57      0.57      0.59      0.01         0.01
  YS02001610YS02001613        0.56      0.56      0.59      0.01         0.01
  YS02001613YS02001616        0.52      0.52      0.56      0.01         0.01
  YS02001616YS02001619        0.51      0.51      0.52      0.01         0.01
  YS02001619YS02001622        0.50      0.51      0.50      0.66         0.48
  YS02001622YS02001625        0.50      0.50      0.67      0.01         0.01
  YS02001625YS02001629        0.41      0.41      0.67      0.01         0.01
  YS02001629YS02163301        0.65      0.65      0.66      0.31         0.29
  YS02001633YS02163601        0.68      0.68      0.70      0.40         0.41
  YS02001641YS02001644        0.51      0.57      0.51      1.28         0.50
  YS02001644YS02001647        0.30      0.30      0.51      0.04         0.01
  YS02001647YS02001649        0.30      0.30      0.33      0.01         0.01
  YS02001649YS02001757        0.31      0.33      0.31      0.32         0.21
  YS02001652YS02001649        0.25      0.25      0.33      0.01         0.01
  YS02001655YS02001652        0.18      0.18      0.24      0.01         0.01
  YS02001658YS02001655        0.12      0.12      0.18      0.01         0.01
  YS02001661YS02001658        0.01      0.01      0.12      0.01         0.01
  YS02001664YS02001661        0.01      0.01      0.03      0.01         0.01
  YS02001745YS02001748        0.01      0.01      0.07      0.01         0.01
  YS02001748YS02001751        0.11      0.11      0.14      0.01         0.01
  YS02001751YS02001754        0.14      0.14      0.18      0.01         0.01
  YS02001754YS02001757        0.19      0.19      0.31      0.01         0.01
  YS02001757CaochengTiaoxuchi        0.01      0.31      0.01      0.41         0.01
  YS02001759YS02001757        0.27      0.27      0.31      0.01         0.01
  YS02001762YS02001759        0.26      0.26      0.27      0.01         0.02
  YS02001765YS02001762        0.25      0.25      0.26      0.01         0.01
  YS02001767YS02001765        0.24      0.24      0.25      0.01         0.04
  YS02001770YS02001767        0.24      0.24      0.24      0.48         0.23
  YS02001774YS02001770        0.23      0.23      0.27      0.01         0.01
  YS02001779YS02001774        0.20      0.20      0.27      0.01         0.01
  YS02001783YS02001784        0.41      0.44      0.41      0.56         0.41
  YS02001784YS02001785        0.32      0.41      0.32      0.75         0.32
  YS02001786YS02001788        0.01      0.32      0.01      0.65         0.01
  YS02001790YS02001791        0.01      0.01      0.01      0.41         0.01
  YS02001882YS02001884        0.39      0.39      0.40      0.01         0.01
  YS02001884YS02001887        0.42      0.42      0.43      0.01         0.01
  YS02001887YS02001890        0.44      0.44      0.45      0.08         0.01
  YS02001890YS02001895        0.38      0.38      0.47      0.01         0.01
  YS02001895YS02001898        0.37      0.37      0.38      0.01         0.01
  YS02001898YS02001901        0.38      0.38      0.42      0.01         0.01
  YS02001901YS02001904        0.41      0.41      0.42      0.01         0.01
  YS02001904YS02001907        0.41      0.41      0.64      0.01         0.01
  YS02001907YS02006553        0.76      0.76      0.82      0.01         0.01
  YS02001910YS02001907        0.46      0.46      0.63      0.01         0.01
  YS02001915YS02001910        0.39      0.39      0.46      0.01         0.01
  YS02001918YS02001915        0.31      0.31      0.39      0.01         0.01
  YS02001920YS02001918        0.31      0.31      0.32      0.01         0.01
  YS02001923YS02001920        0.27      0.27      0.32      0.01         0.01
  YS02001926YS02001923        0.03      0.03      0.06      0.01         0.01
  YS02001929YS02001926        0.01      0.01      0.06      0.01         0.01
  YS02006553YS02006556        0.54      0.54      0.64      0.01         0.01
  YS02006556YS02006558        0.59      0.59      0.65      0.01         0.01
  YS02006558YS02006561        0.34      0.53      0.34      0.71         0.34
  YS02006561YS02001783        0.28      0.28      0.44      0.01         0.01
  YS02163301YS02001633        0.66      0.66      0.70      0.01         0.01
  YS02163601YS02164001        0.59      0.59      0.70      0.25         0.01
  YS02164001YS02001641        0.57      0.59      0.57      0.63         0.45
  
  
  ***************
  Pumping Summary
  ***************
  
  ---------------------------------------------------------------------------------------------------------
                                                  Min       Avg       Max     Total     Power    % Time Off
                        Percent   Number of      Flow      Flow      Flow    Volume     Usage    Pump Curve
  Pump                 Utilized   Start-Ups       LPS       LPS       LPS  10^6 ltr     Kw-hr    Low   High
  ---------------------------------------------------------------------------------------------------------
  CC-R1                   20.55           2      0.00    683.00    683.00     4.000     64.02    0.0  100.0
  CC-R2                   20.55           2      0.00    683.00    683.00     4.000     64.02    0.0  100.0
  CC-S1                   29.50           6      0.00    200.00    200.00     1.681     14.16    0.0   57.4
  CC-S2                   29.50           6      0.00    200.00    200.00     1.681     14.16    0.0   57.4
  JK-R1                    3.72          51      0.00   1000.00   1000.00     1.061      3.17    0.0    0.0
  JK-R2                    3.72          51      0.00   1000.00   1000.00     1.061      3.17    0.0    0.0
  JK-S                    17.93          82      0.00    299.93    300.00     1.532     34.51    0.0    0.0
  

  Analysis begun on:  Thu Jan 16 14:27:19 2025
  Analysis ended on:  Thu Jan 16 14:27:20 2025
  Total elapsed time: 00:00:01