
  EPA STORM WATER MANAGEMENT MODEL - VERSION 5.2 (Build 5.2.4)
  PYSWMM TOOLKIT API - VERSION v1.0 (2023-11-27)
  ------------------------------------------------------------

  WARNING 04: minimum elevation drop used for Conduit WS02004404WS02004405
  WARNING 03: negative offset ignored for Link YS02001904YS02001907
  
  ****************
  Analysis Options
  ****************
  Flow Units ............... LPS
  Process Models:
    Rainfall/Runoff ........ YES
    RDII ................... NO
    Snowmelt ............... NO
    Groundwater ............ NO
    Flow Routing ........... YES
    Ponding Allowed ........ NO
    Water Quality .......... NO
  Infiltration Method ...... HORTON
  Flow Routing Method ...... DYNWAVE
  Surcharge Method ......... EXTRAN
  Starting Date ............ 08/28/2015 08:00:00
  Ending Date .............. 08/28/2015 16:00:00
  Antecedent Dry Days ...... 8.0
  Report Time Step ......... 00:01:00
  Wet Time Step ............ 00:01:00
  Dry Time Step ............ 00:01:00
  Routing Time Step ........ 30.00 sec
  Variable Time Step ....... YES
  Maximum Trials ........... 8
  Number of Threads ........ 4
  Head Tolerance ........... 0.001500 m
  
  
  **************************        Volume         Depth
  Runoff Quantity Continuity     hectare-m            mm
  **************************     ---------       -------
  Total Precipitation ......         7.979       240.547
  Evaporation Loss .........         0.000         0.000
  Infiltration Loss ........         0.110         3.319
  Surface Runoff ...........         7.838       236.285
  Final Storage ............         0.033         1.002
  Continuity Error (%) .....        -0.025
  
  
  **************************        Volume        Volume
  Flow Routing Continuity        hectare-m      10^6 ltr
  **************************     ---------     ---------
  Dry Weather Inflow .......         0.025         0.248
  Wet Weather Inflow .......         7.835        78.355
  Groundwater Inflow .......         0.000         0.000
  RDII Inflow ..............         0.000         0.000
  External Inflow ..........         0.083         0.825
  External Outflow .........         3.228        32.284
  Flooding Loss ............         4.935        49.352
  Evaporation Loss .........         0.000         0.000
  Exfiltration Loss ........         0.000         0.000
  Initial Stored Volume ....         0.243         2.431
  Final Stored Volume ......         0.045         0.445
  Continuity Error (%) .....        -0.271
  
  
  *************************
  Highest Continuity Errors
  *************************
  Node YS02001583 (-17.39%)
  Node YS02001884 (5.65%)
  Node WS02006256 (-4.55%)
  
  
  ***************************
  Time-Step Critical Elements
  ***************************
  Link WS02006238WS02006235 (22.36%)
  Link YS02001793JiankangQianchi (18.15%)
  Link WS02003066WSF200 (13.65%)
  Link WS02004404WS02004405 (11.96%)
  Link YS02001791YS02001793 (11.74%)
  
  
  ********************************
  Highest Flow Instability Indexes
  ********************************
  Link YS02001602YS02001605 (54)
  Link YS02001605YS02001607 (48)
  Link YS02001619YS02001622 (44)
  Link YS02001607YS02001610 (44)
  Link WS02006113WS02006111 (43)
  
  
  *********************************
  Most Frequent Nonconverging Nodes
  *********************************
  Node CC-1 (48.05%)
  Node CC-2 (48.05%)
  Node JK-1 (48.05%)
  Node JK-2 (48.05%)
  Node WSC (48.05%)
  
  
  *************************
  Routing Time Step Summary
  *************************
  Minimum Time Step           :     0.00 sec
  Average Time Step           :     2.39 sec
  Maximum Time Step           :     6.43 sec
  % of Time in Steady State   :     0.00
  Average Iterations per Step :     5.30
  % of Steps Not Converging   :    48.05
  Time Step Frequencies       :
     30.000 - 13.228 sec      :     0.00 %
     13.228 -  5.833 sec      :     7.80 %
      5.833 -  2.572 sec      :    25.32 %
      2.572 -  1.134 sec      :    49.26 %
      1.134 -  0.500 sec      :    17.62 %
  
  
  ***************************
  Subcatchment Runoff Summary
  ***************************
  
  ------------------------------------------------------------------------------------------------------------------------------
                            Total      Total      Total      Total     Imperv       Perv      Total       Total     Peak  Runoff
                           Precip      Runon       Evap      Infil     Runoff     Runoff     Runoff      Runoff   Runoff   Coeff
  Subcatchment                 mm         mm         mm         mm         mm         mm         mm    10^6 ltr      LPS
  ------------------------------------------------------------------------------------------------------------------------------
  sub60                    240.55       0.00       0.00       1.96     210.54      26.91     237.45        3.12   733.01   0.987
  sub61                    240.55       0.00       0.00       2.86     198.58      38.05     236.63        4.34  1022.21   0.984
  sub62                    240.55       0.00       0.00       1.31     220.06      17.94     238.00        6.52  1528.48   0.989
  sub63                    240.55       0.00       0.00       5.31     169.87      64.46     234.33        5.32  1254.01   0.974
  sub64                    240.55       0.00       0.00       2.68     203.29      33.41     236.70        5.69  1334.44   0.984
  sub65                    240.55       0.00       0.00       2.32     208.05      28.96     237.01        6.52  1529.23   0.985
  sub66                    240.55       0.00       0.00       6.59     169.72      63.17     232.89       10.86  2445.99   0.968
  sub67                    240.55       0.00       0.00       1.24     220.14      18.01     238.15        4.43  1039.45   0.990
  sub68                    240.55       0.00       0.00       2.37     205.73      31.31     237.05        6.52  1533.32   0.985
  sub69                    240.55       0.00       0.00       2.18     204.38      33.91     238.29        8.82  2053.47   0.991
  sub70                    240.55       0.00       0.00       7.26     158.60      74.53     233.13        6.74  1452.71   0.969
  sub71                    240.55       0.00       0.00       1.35     220.01      17.90     237.91        6.22  1455.90   0.989
  sub72                    240.55       0.00       0.00       1.20     222.32      15.64     237.96        3.27   762.42   0.989
  
  
  ******************
  Node Depth Summary
  ******************
  
  ---------------------------------------------------------------------------------
                                 Average  Maximum  Maximum  Time of Max    Reported
                                   Depth    Depth      HGL   Occurrence   Max Depth
  Node                 Type       Meters   Meters   Meters  days hr:min      Meters
  ---------------------------------------------------------------------------------
  WS02003060           JUNCTION     0.27     0.38     5.31     0  03:26        0.38
  WS02003066           JUNCTION     0.22     0.30     5.85     0  03:26        0.30
  WS02003067           JUNCTION     0.54     0.70     6.02     0  03:26        0.70
  WS02003069           JUNCTION     0.30     0.43     5.01     0  03:27        0.43
  WS02003072           JUNCTION     0.37     0.50     4.87     0  03:27        0.50
  WS02003073           JUNCTION     0.21     0.30     4.36     0  03:28        0.30
  WS02004401           JUNCTION     0.66     0.85     6.85     0  03:24        0.85
  WS02004402           JUNCTION     0.68     0.88     6.84     0  03:24        0.88
  WS02004403           JUNCTION     0.70     0.89     6.82     0  03:24        0.89
  WS02004404           JUNCTION     0.78     0.96     6.81     0  03:24        0.96
  WS02004405           JUNCTION     0.77     0.96     6.81     0  03:24        0.95
  WS02004406           JUNCTION     0.78     0.96     6.79     0  03:24        0.96
  WS02004407           JUNCTION     0.21     0.30     6.61     0  03:24        0.30
  WS02004409           JUNCTION     0.46     0.67     6.44     0  03:25        0.67
  WS02004410           JUNCTION     0.48     0.68     6.40     0  03:25        0.68
  WS02004411           JUNCTION     0.50     0.69     6.37     0  03:25        0.69
  WS02004412           JUNCTION     0.52     0.70     6.34     0  03:25        0.70
  WS02004413           JUNCTION     0.67     0.86     6.33     0  03:26        0.86
  WS02006109           JUNCTION     0.75     1.15     7.76     0  03:14        1.04
  WS02006110           JUNCTION     0.74     1.16     7.74     0  03:14        1.03
  WS02006111           JUNCTION     0.21     0.29     6.99     0  03:23        0.29
  WS02006112           JUNCTION     0.83     1.07     6.96     0  03:25        1.05
  WS02006113           JUNCTION     0.33     0.46     7.35     0  03:16        0.46
  WS02006115           JUNCTION     0.55     0.75     6.89     0  03:23        0.75
  WS02006116           JUNCTION     0.63     0.83     6.87     0  03:24        0.83
  WS02006228           JUNCTION     0.76     1.14     7.80     0  03:25        1.11
  WS02006229           JUNCTION     0.74     1.17     7.87     0  03:25        1.14
  WS02006230           JUNCTION     0.78     1.36     8.10     0  03:25        1.25
  WS02006231           JUNCTION     0.55     2.06     9.18     0  01:53        1.33
  WS02006232           JUNCTION     0.70     2.01     9.05     0  01:53        1.73
  WS02006234           JUNCTION     0.65     1.96     9.12     0  01:34        1.96
  WS02006235           JUNCTION     0.70     2.00     9.16     0  01:34        2.00
  WS02006238           JUNCTION     0.73     2.15     9.29     0  01:37        2.15
  WS02006239           JUNCTION     0.71     2.03     9.24     0  02:11        2.03
  WS02006240           JUNCTION     0.68     2.10     9.39     0  02:22        2.10
  WS02006242           JUNCTION     0.77     1.55     8.82     0  01:15        1.55
  WS02006243           JUNCTION     0.70     1.48     8.90     0  01:46        1.48
  WS02006245           JUNCTION     0.70     1.56     9.04     0  02:22        1.56
  WS02006247           JUNCTION     0.72     1.35     8.85     0  01:46        1.35
  WS02006248           JUNCTION     0.69     1.10     8.69     0  01:12        1.10
  WS02006249           JUNCTION     0.72     1.09     8.69     0  01:12        1.09
  WS02006251           JUNCTION     0.73     1.47     9.14     0  01:12        1.28
  WS02006252           JUNCTION     0.46     1.50     9.74     0  00:00        0.87
  WS02006256           JUNCTION     1.29     2.35     9.28     0  00:00        2.35
  WSF200               JUNCTION     0.20     0.29     5.52     0  03:26        0.29
  YS02001580           JUNCTION     0.35     1.05     9.59     0  01:05        1.05
  YS02001583           JUNCTION     0.38     1.14     9.64     0  01:05        0.83
  YS02001586           JUNCTION     0.55     1.13     9.30     0  01:04        1.13
  YS02001590           JUNCTION     0.69     1.40     9.26     0  01:04        1.40
  YS02001593           JUNCTION     0.62     1.45     9.31     0  01:04        1.36
  YS02001596           JUNCTION     0.80     1.76     9.18     0  01:04        1.68
  YS02001600           JUNCTION     0.92     1.87     9.00     0  01:04        1.87
  YS02001601           JUNCTION     1.10     2.06     8.90     0  01:04        2.06
  YS02001602           JUNCTION     0.98     1.87     8.77     0  01:06        1.87
  YS02001605           JUNCTION     0.92     1.78     8.68     0  01:06        1.78
  YS02001607           JUNCTION     0.88     1.68     8.53     0  01:06        1.68
  YS02001610           JUNCTION     0.92     1.68     8.48     0  01:06        1.68
  YS02001613           JUNCTION     0.88     1.70     8.54     0  01:06        1.70
  YS02001616           JUNCTION     0.82     1.61     8.52     0  01:06        1.61
  YS02001619           JUNCTION     0.81     1.61     8.54     0  01:06        1.61
  YS02001622           JUNCTION     0.80     1.62     8.52     0  01:06        1.59
  YS02001625           JUNCTION     1.03     1.78     8.38     0  01:06        1.78
  YS02001629           JUNCTION     0.98     1.85     8.40     0  01:05        1.85
  YS02001633           JUNCTION     1.07     2.08     8.53     0  01:12        2.08
  YS02001641           JUNCTION     1.05     2.00     8.44     0  01:12        2.00
  YS02001644           JUNCTION     1.05     1.92     8.35     0  01:06        1.92
  YS02001647           JUNCTION     0.87     1.86     8.47     0  01:07        1.78
  YS02001649           JUNCTION     0.99     2.05     8.44     0  01:07        2.05
  YS02001652           JUNCTION     0.86     2.16     8.76     0  01:06        1.93
  YS02001655           JUNCTION     0.74     2.20     9.05     0  01:07        1.74
  YS02001658           JUNCTION     0.60     2.30     9.44     0  01:07        1.51
  YS02001661           JUNCTION     0.50     2.46     9.86     0  01:07        1.39
  YS02001664           JUNCTION     0.22     2.26    10.19     0  01:07        1.06
  YS02001745           JUNCTION     0.35     2.29     9.81     0  01:07        0.91
  YS02001748           JUNCTION     0.57     2.27     9.35     0  01:07        1.32
  YS02001751           JUNCTION     0.67     2.20     9.08     0  01:07        1.56
  YS02001754           JUNCTION     0.82     2.20     8.81     0  01:07        1.79
  YS02001757           JUNCTION     1.03     2.21     8.47     0  01:07        2.08
  YS02001759           JUNCTION     0.98     2.21     8.57     0  01:07        2.21
  YS02001762           JUNCTION     0.97     2.15     8.55     0  01:07        2.10
  YS02001765           JUNCTION     0.94     2.10     8.55     0  01:06        2.03
  YS02001767           JUNCTION     0.93     2.03     8.52     0  01:07        2.03
  YS02001770           JUNCTION     0.94     1.95     8.44     0  01:07        1.95
  YS02001774           JUNCTION     1.00     2.01     8.44     0  01:12        2.01
  YS02001779           JUNCTION     0.80     1.68     8.37     0  01:06        1.68
  YS02001783           JUNCTION     0.58     1.27     7.41     0  01:06        1.24
  YS02001784           JUNCTION     0.55     1.17     7.24     0  01:06        1.16
  YS02001786           JUNCTION     0.44     1.12     7.15     0  01:06        0.87
  YS02001788           JUNCTION     0.31     0.66     6.63     0  01:06        0.62
  YS02001790           JUNCTION     0.36     0.73     6.38     0  01:25        0.73
  YS02001791           JUNCTION     0.22     0.45     5.92     0  01:06        0.44
  YS02001793           JUNCTION     0.11     0.26     5.10     0  02:12        0.26
  YS02001882           JUNCTION     0.77     1.83     8.55     0  01:05        1.83
  YS02001884           JUNCTION     0.86     1.93     8.55     0  01:05        1.88
  YS02001887           JUNCTION     0.93     2.00     8.54     0  01:12        2.00
  YS02001890           JUNCTION     0.95     1.81     8.32     0  01:05        1.81
  YS02001895           JUNCTION     0.73     1.75     8.50     0  01:12        1.75
  YS02001898           JUNCTION     0.73     1.77     8.51     0  01:05        1.60
  YS02001901           JUNCTION     0.84     1.77     8.38     0  01:05        1.74
  YS02001904           JUNCTION     0.82     1.67     8.30     0  01:05        1.67
  YS02001907           JUNCTION     1.12     1.96     8.25     0  01:05        1.96
  YS02001910           JUNCTION     0.98     2.10     8.61     0  01:12        2.10
  YS02001915           JUNCTION     0.84     2.00     8.72     0  01:12        2.00
  YS02001918           JUNCTION     0.64     1.81     8.88     0  01:06        1.81
  YS02001920           JUNCTION     0.72     2.14     9.15     0  01:06        2.07
  YS02001923           JUNCTION     0.56     2.03     9.29     0  01:06        2.01
  YS02001926           JUNCTION     0.51     1.90     9.35     0  01:06        1.90
  YS02001929           JUNCTION     0.38     1.78     9.47     0  01:06        1.78
  YS02006553           JUNCTION     1.13     2.05     8.33     0  01:12        2.05
  YS02006556           JUNCTION     1.10     2.09     8.40     0  01:12        2.09
  YS02006558           JUNCTION     1.14     2.41     8.68     0  01:12        2.41
  YS02006561           JUNCTION     0.41     0.95     7.61     0  01:06        0.90
  YS02163301           JUNCTION     1.01     2.03     8.55     0  01:12        2.03
  YS02163601           JUNCTION     1.11     2.08     8.48     0  01:06        2.08
  YS02164001           JUNCTION     1.04     2.10     8.56     0  01:12        2.10
  CC-1                 OUTFALL      0.00     0.00     0.00     0  00:00        0.00
  CC-2                 OUTFALL      0.00     0.00     0.00     0  00:00        0.00
  JK-1                 OUTFALL      0.00     0.00     0.00     0  00:00        0.00
  JK-2                 OUTFALL      0.00     0.00     0.00     0  00:00        0.00
  WSC                  OUTFALL      0.21     0.30     0.97     0  03:28        0.30
  CC-storage           STORAGE      1.00     2.24     7.74     0  03:00        2.24
  JK-storage           STORAGE      0.15     2.99     3.79     0  00:00        0.68
  
  
  *******************
  Node Inflow Summary
  *******************
  
  -------------------------------------------------------------------------------------------------
                                  Maximum  Maximum                  Lateral       Total        Flow
                                  Lateral    Total  Time of Max      Inflow      Inflow     Balance
                                   Inflow   Inflow   Occurrence      Volume      Volume       Error
  Node                 Type           LPS      LPS  days hr:min    10^6 ltr    10^6 ltr     Percent
  -------------------------------------------------------------------------------------------------
  WS02003060           JUNCTION     16.53   552.06     0  03:26       0.471        7.19       0.029
  WS02003066           JUNCTION      0.00   535.49     0  03:26           0        6.72       0.022
  WS02003067           JUNCTION      0.00   535.49     0  03:26           0        6.73       0.061
  WS02003069           JUNCTION      0.32   552.34     0  03:26     0.00912         7.2       0.055
  WS02003072           JUNCTION      0.00   552.28     0  03:27           0        7.19       0.101
  WS02003073           JUNCTION      1.82   554.01     0  03:27      0.0519        7.24       0.077
  WS02004401           JUNCTION      0.00   539.97     0  03:26           0        6.83       0.150
  WS02004402           JUNCTION      0.00   538.05     0  03:15           0        6.82       0.152
  WS02004403           JUNCTION      0.00   537.07     0  03:16           0        6.81       0.149
  WS02004404           JUNCTION      0.16   536.25     0  03:24     0.00462         6.8       0.134
  WS02004405           JUNCTION      0.04   536.22     0  03:24     0.00109        6.79       0.173
  WS02004406           JUNCTION      0.00   536.25     0  03:24           0        6.78       0.308
  WS02004407           JUNCTION      0.00   536.10     0  03:24           0        6.76       0.015
  WS02004409           JUNCTION      0.00   536.04     0  03:24           0        6.76       0.039
  WS02004410           JUNCTION      0.00   535.83     0  03:25           0        6.76       0.067
  WS02004411           JUNCTION      0.00   535.66     0  03:25           0        6.75       0.083
  WS02004412           JUNCTION      0.00   535.58     0  03:25           0        6.75       0.111
  WS02004413           JUNCTION      0.00   535.57     0  03:25           0        6.74       0.206
  WS02006109           JUNCTION      1.23   554.61     0  03:28      0.0351        6.87       0.081
  WS02006110           JUNCTION      0.00   555.61     0  03:28           0        6.86       0.070
  WS02006111           JUNCTION      0.00   560.72     0  03:19           0        6.86       0.003
  WS02006112           JUNCTION      0.00   542.85     0  03:23           0        6.85       0.297
  WS02006113           JUNCTION      0.00   565.38     0  03:25           0        6.86       0.036
  WS02006115           JUNCTION      0.00   554.14     0  03:28           0        6.83       0.102
  WS02006116           JUNCTION      0.00   540.44     0  03:15           0        6.83      -0.006
  WS02006228           JUNCTION      0.00   552.52     0  03:28           0        6.83       0.020
  WS02006229           JUNCTION      0.00   552.70     0  03:28           0        6.84       0.098
  WS02006230           JUNCTION     10.28   597.75     0  03:11       0.293        6.84      -0.025
  WS02006231           JUNCTION      0.00   594.80     0  01:13           0        6.53      -0.233
  WS02006232           JUNCTION      0.00   593.53     0  01:13           0        6.56       0.384
  WS02006234           JUNCTION      0.00   614.36     0  01:13           0        6.53      -0.441
  WS02006235           JUNCTION      0.00   609.49     0  01:13           0        6.62       0.307
  WS02006238           JUNCTION      0.00   426.42     0  03:26           0        5.19      -0.007
  WS02006239           JUNCTION      0.00   424.87     0  03:26           0        5.14      -0.026
  WS02006240           JUNCTION      0.00   420.86     0  03:26           0        5.11      -0.011
  WS02006242           JUNCTION      0.00   420.54     0  04:09           0        5.09      -0.031
  WS02006243           JUNCTION      0.00   421.52     0  04:17           0        5.09       0.022
  WS02006245           JUNCTION      0.00   422.37     0  04:17           0        5.11       0.299
  WS02006247           JUNCTION      0.00   422.15     0  04:17           0        5.11       0.025
  WS02006248           JUNCTION      0.00   423.15     0  04:17           0        5.14       0.098
  WS02006249           JUNCTION      0.00   477.05     0  01:06           0        5.45       0.251
  WS02006251           JUNCTION      0.08   405.53     0  01:12     0.00219        5.45      -0.013
  WS02006252           JUNCTION      0.00   400.00     0  00:00           0        5.45      -0.006
  WS02006256           JUNCTION      0.00   335.84     0  02:04           0        2.29      -4.353
  WSF200               JUNCTION      0.00   535.50     0  03:26           0        6.72       0.005
  YS02001580           JUNCTION      0.00   330.73     0  01:04           0     0.00539      -9.382
  YS02001583           JUNCTION      0.00   353.39     0  01:04           0      0.0154     -14.815
  YS02001586           JUNCTION   1452.71  1452.79     0  01:34        6.73        6.75       0.025
  YS02001590           JUNCTION      0.00   353.15     0  01:04           0         2.7      -0.044
  YS02001593           JUNCTION      0.00   361.78     0  01:04           0         2.7       0.014
  YS02001596           JUNCTION      0.00   318.27     0  02:10           0         2.7      -0.028
  YS02001600           JUNCTION      0.00   318.59     0  02:22           0        2.71       0.031
  YS02001601           JUNCTION   2053.47  2370.90     0  01:31        8.82        11.5       0.012
  YS02001602           JUNCTION      0.00   638.06     0  01:04           0        3.61       0.021
  YS02001605           JUNCTION      0.00   637.82     0  01:04           0        3.16       0.025
  YS02001607           JUNCTION      0.00   637.82     0  01:04           0        3.16       0.038
  YS02001610           JUNCTION      0.00   955.87     0  01:48           0        5.68       0.045
  YS02001613           JUNCTION      0.00   619.70     0  01:17           0        3.51      -0.001
  YS02001616           JUNCTION      0.00   619.38     0  01:17           0        3.53      -0.008
  YS02001619           JUNCTION   2445.99  2445.99     0  01:33        10.9        11.9      -0.007
  YS02001622           JUNCTION      0.00  1142.82     0  01:05           0        7.98      -0.009
  YS02001625           JUNCTION      0.00  1505.46     0  01:55           0        9.82       0.053
  YS02001629           JUNCTION      0.00   923.48     0  01:05           0        4.07       0.063
  YS02001633           JUNCTION   1529.43  1529.43     0  01:31        6.53        8.04       0.033
  YS02001641           JUNCTION      0.00  1129.49     0  01:06           0        5.49       0.034
  YS02001644           JUNCTION   1334.48  2054.86     0  01:30        5.69        11.2       0.027
  YS02001647           JUNCTION      0.00  1849.29     0  01:06           0           5       0.001
  YS02001649           JUNCTION      0.00  2008.40     0  01:06           0        10.3       0.003
  YS02001652           JUNCTION      0.00  1257.65     0  01:32           0        5.33      -0.086
  YS02001655           JUNCTION      0.15  1257.78     0  01:32     0.00439        5.33       0.046
  YS02001658           JUNCTION      0.00  1257.83     0  01:32           0        5.33      -0.028
  YS02001661           JUNCTION      0.00  1257.32     0  01:32           0        5.32      -0.181
  YS02001664           JUNCTION   1254.01  1254.01     0  01:31        5.32        5.32       0.013
  YS02001745           JUNCTION    733.01   733.01     0  01:31        3.12        3.12       0.072
  YS02001748           JUNCTION      0.04   989.85     0  01:07     0.00128        3.12      -0.117
  YS02001751           JUNCTION      0.01  1081.46     0  01:06    0.000313        3.14       0.005
  YS02001754           JUNCTION      0.26   891.88     0  01:07     0.00741        3.15      -0.230
  YS02001757           JUNCTION      0.00  3619.59     0  01:24           0        21.4       0.021
  YS02001759           JUNCTION   1022.25  1521.70     0  01:23        4.34         7.9      -0.004
  YS02001762           JUNCTION      0.00   701.70     0  01:07           0        3.57      -0.012
  YS02001765           JUNCTION      0.00   705.01     0  01:07           0        3.56       0.007
  YS02001767           JUNCTION      0.54   807.94     0  01:06      0.0152        3.55      -0.012
  YS02001770           JUNCTION   1528.63  1528.63     0  01:31        6.52        6.56      -0.016
  YS02001774           JUNCTION      0.00   852.09     0  01:23           0        2.82       0.052
  YS02001779           JUNCTION      0.01   851.74     0  01:35    0.000142        2.77      -0.020
  YS02001783           JUNCTION      0.00  1166.36     0  01:12           0           9       0.004
  YS02001784           JUNCTION      1.06  1167.53     0  01:12      0.0302        9.03       0.006
  YS02001786           JUNCTION      0.06  1167.09     0  01:12      0.0016        9.03       0.007
  YS02001788           JUNCTION      0.07  1167.01     0  01:30     0.00202        9.03       0.003
  YS02001790           JUNCTION      0.15  1207.48     0  01:06     0.00442        9.04      -0.000
  YS02001791           JUNCTION      0.00  1298.21     0  01:25           0        9.04      -0.024
  YS02001793           JUNCTION      0.00  1282.82     0  01:06           0        9.04      -0.038
  YS02001882           JUNCTION      0.00   184.49     0  01:05           0      0.0133       5.575
  YS02001884           JUNCTION      0.00   347.24     0  01:05           0      0.0497       5.991
  YS02001887           JUNCTION   1039.90  1040.53     0  01:30        4.44        4.47       0.091
  YS02001890           JUNCTION      0.00  1040.85     0  01:31           0        4.43       0.119
  YS02001895           JUNCTION      0.00   584.48     0  01:05           0        3.17       0.118
  YS02001898           JUNCTION      0.00   567.50     0  01:05           0        3.16      -0.080
  YS02001901           JUNCTION      0.00   557.46     0  01:06           0        3.18       0.115
  YS02001904           JUNCTION      0.00   554.90     0  01:06           0        3.21       0.092
  YS02001907           JUNCTION      0.00  2880.99     0  01:30           0        13.2       0.141
  YS02001910           JUNCTION      0.00  1993.18     0  01:27           0        9.35       0.080
  YS02001915           JUNCTION   1455.92  2221.69     0  01:31        6.22        9.64       0.014
  YS02001918           JUNCTION      0.00  1037.94     0  01:06           0        3.46      -0.057
  YS02001920           JUNCTION      2.87  1055.86     0  01:06      0.0818        3.42      -0.075
  YS02001923           JUNCTION      0.04  1561.19     0  01:06     0.00107        3.32      -0.084
  YS02001926           JUNCTION      0.05  1502.78     0  01:06     0.00149        3.29      -0.086
  YS02001929           JUNCTION    762.42  1192.24     0  01:06        3.27        3.28      -0.076
  YS02006553           JUNCTION      0.00   804.85     0  03:01           0        3.75       0.324
  YS02006556           JUNCTION      0.00   804.97     0  03:01           0        3.78       0.230
  YS02006558           JUNCTION   1534.20  1534.20     0  01:31        6.55        9.67       0.038
  YS02006561           JUNCTION      0.00  1213.15     0  01:06           0           9      -0.000
  YS02163301           JUNCTION      0.00   810.48     0  01:31           0        4.08       0.034
  YS02163601           JUNCTION      0.11  1137.16     0  01:06     0.00313        5.46       0.088
  YS02164001           JUNCTION      0.00  1136.30     0  01:06           0        5.47       0.046
  CC-1                 OUTFALL       0.00   683.00     0  00:00           0        9.04       0.000
  CC-2                 OUTFALL       0.00   683.00     0  00:00           0        9.04       0.000
  JK-1                 OUTFALL       0.00  1000.00     0  00:00           0        3.48       0.000
  JK-2                 OUTFALL       0.00  1000.00     0  00:00           0        3.48       0.000
  WSC                  OUTFALL       0.00   553.86     0  03:28           0        7.23       0.000
  CC-storage           STORAGE       0.00  3618.40     0  01:24           0        23.6      -0.233
  JK-storage           STORAGE       0.00  1413.69     0  01:37           0        9.19      -0.636
  
  
  **********************
  Node Surcharge Summary
  **********************
  
  Surcharging occurs when water rises above the top of the highest conduit.
  ---------------------------------------------------------------------
                                               Max. Height   Min. Depth
                                   Hours       Above Crown    Below Rim
  Node                 Type      Surcharged         Meters       Meters
  ---------------------------------------------------------------------
  WS02006109           JUNCTION        3.36          0.326        1.494
  WS02006110           JUNCTION        0.60          0.249        1.601
  WS02006112           JUNCTION        2.09          0.073        1.607
  WS02006228           JUNCTION        3.34          0.315        1.885
  WS02006229           JUNCTION        3.37          0.374        2.076
  WS02006230           JUNCTION        0.63          0.278        1.292
  WS02006231           JUNCTION        1.76          1.346        0.184
  WS02006232           JUNCTION        3.46          1.313        0.167
  WS02006234           JUNCTION        2.39          1.240        0.000
  WS02006235           JUNCTION        2.93          1.290        0.000
  WS02006238           JUNCTION        3.23          1.430        0.000
  WS02006239           JUNCTION        3.31          1.290        0.000
  WS02006240           JUNCTION        3.38          1.390        0.000
  WS02006242           JUNCTION        3.49          0.820        0.000
  WS02006243           JUNCTION        3.40          0.770        0.000
  WS02006245           JUNCTION        3.40          0.850        0.000
  WS02006247           JUNCTION        3.42          0.636        0.124
  WS02006248           JUNCTION        3.39          0.380        0.000
  WS02006249           JUNCTION        3.40          0.390        0.000
  WS02006251           JUNCTION        2.35          0.443        0.737
  WS02006252           JUNCTION        3.78          1.100        0.000
  WS02006256           JUNCTION        6.27          2.050        0.000
  YS02001580           JUNCTION        2.02          0.450        0.000
  YS02001583           JUNCTION        2.03          0.500        0.000
  YS02001586           JUNCTION        2.12          0.510        0.000
  YS02001590           JUNCTION        2.16          0.750        0.000
  YS02001593           JUNCTION        2.17          0.831        0.009
  YS02001596           JUNCTION        2.23          1.035        0.035
  YS02001600           JUNCTION        2.31          1.190        0.000
  YS02001601           JUNCTION        2.48          1.440        0.000
  YS02001602           JUNCTION        2.44          1.270        0.000
  YS02001605           JUNCTION        2.42          1.180        0.000
  YS02001607           JUNCTION        2.19          0.680        0.000
  YS02001610           JUNCTION        2.20          0.680        0.000
  YS02001613           JUNCTION        2.19          0.700        0.000
  YS02001616           JUNCTION        2.16          0.610        0.000
  YS02001619           JUNCTION        2.15          0.610        0.000
  YS02001622           JUNCTION        2.15          0.620        0.000
  YS02001625           JUNCTION        2.29          0.780        0.000
  YS02001629           JUNCTION        2.13          0.470        0.000
  YS02001633           JUNCTION        2.34          1.060        0.000
  YS02001641           JUNCTION        2.35          1.001        0.099
  YS02001644           JUNCTION        2.34          0.920        0.000
  YS02001647           JUNCTION        2.22          0.859        0.041
  YS02001649           JUNCTION        2.35          1.050        0.000
  YS02001652           JUNCTION        2.20          1.130        0.000
  YS02001655           JUNCTION        2.07          1.200        0.000
  YS02001658           JUNCTION        1.90          1.300        0.000
  YS02001661           JUNCTION        0.82          1.390        0.000
  YS02001664           JUNCTION        0.01          1.263        0.047
  YS02001745           JUNCTION        0.01          1.291        0.059
  YS02001748           JUNCTION        1.88          1.190        0.000
  YS02001751           JUNCTION        2.03          1.200        0.000
  YS02001754           JUNCTION        2.16          1.150        0.000
  YS02001757           JUNCTION        2.43          1.210        0.000
  YS02001759           JUNCTION        2.36          1.210        0.000
  YS02001762           JUNCTION        2.33          1.150        0.000
  YS02001765           JUNCTION        2.29          1.100        0.000
  YS02001767           JUNCTION        2.26          1.030        0.000
  YS02001770           JUNCTION        2.25          0.920        0.000
  YS02001774           JUNCTION        2.31          1.014        0.036
  YS02001779           JUNCTION        2.14          0.680        0.000
  YS02001783           JUNCTION        1.99          0.472        1.128
  YS02001784           JUNCTION        1.98          0.375        1.115
  YS02001786           JUNCTION        1.92          0.324        1.106
  YS02001882           JUNCTION        1.97          0.830        0.000
  YS02001884           JUNCTION        1.97          0.870        0.000
  YS02001887           JUNCTION        1.99          0.950        0.000
  YS02001890           JUNCTION        1.99          0.760        0.000
  YS02001895           JUNCTION        1.96          0.750        0.000
  YS02001898           JUNCTION        1.95          0.740        0.000
  YS02001901           JUNCTION        1.98          0.769        0.101
  YS02001904           JUNCTION        1.98          0.673        0.177
  YS02001907           JUNCTION        2.07          0.950        0.000
  YS02001910           JUNCTION        2.00          1.100        0.000
  YS02001915           JUNCTION        1.96          1.000        0.000
  YS02001918           JUNCTION        1.92          0.810        0.000
  YS02001920           JUNCTION        1.92          1.140        0.000
  YS02001923           JUNCTION        0.93          0.820        0.000
  YS02001926           JUNCTION        1.03          0.900        0.000
  YS02001929           JUNCTION        0.67          0.780        0.000
  YS02006553           JUNCTION        2.08          1.049        0.141
  YS02006556           JUNCTION        2.04          1.048        0.302
  YS02006558           JUNCTION        2.03          1.309        0.091
  YS02006561           JUNCTION        1.90          0.147        1.003
  YS02163301           JUNCTION        2.32          1.030        0.000
  YS02163601           JUNCTION        2.38          1.080        0.000
  YS02164001           JUNCTION        2.33          1.100        0.000
  
  
  *********************
  Node Flooding Summary
  *********************
  
  Flooding refers to all water that overflows a node, whether it ponds or not.
  --------------------------------------------------------------------------
                                                             Total   Maximum
                                 Maximum   Time of Max       Flood    Ponded
                        Hours       Rate    Occurrence      Volume     Depth
  Node                 Flooded       LPS   days hr:min    10^6 ltr    Meters
  --------------------------------------------------------------------------
  WS02006234              0.01     98.78      0  03:01       0.000     0.000
  WS02006235              0.01     40.77      0  01:50       0.000     0.000
  WS02006238              0.01     42.44      0  02:54       0.000     0.000
  WS02006239              0.01     13.18      0  02:22       0.000     0.000
  WS02006240              0.01     10.89      0  02:22       0.000     0.000
  WS02006242              0.04     33.76      0  02:11       0.002     0.000
  WS02006243              0.01      6.88      0  02:22       0.000     0.000
  WS02006245              0.01      1.05      0  02:22       0.000     0.000
  WS02006248              0.48     39.94      0  01:37       0.026     0.000
  WS02006249              1.98     78.43      0  03:28       0.301     0.000
  WS02006252              0.01    245.63      0  00:00       0.000     0.000
  WS02006256              2.12    311.45      0  02:04       0.919     0.000
  YS02001580              0.01    304.10      0  01:05       0.002     0.000
  YS02001583              0.01    228.85      0  01:05       0.001     0.000
  YS02001586              1.97   1135.19      0  01:34       4.039     0.000
  YS02001590              0.01    221.94      0  01:04       0.001     0.000
  YS02001600              0.01     25.36      0  01:04       0.000     0.000
  YS02001601              2.07   1973.03      0  01:31       7.903     0.000
  YS02001602              2.04     63.50      0  01:12       0.449     0.000
  YS02001605              0.01      8.45      0  01:06       0.000     0.000
  YS02001607              0.01    455.39      0  01:06       0.004     0.000
  YS02001610              1.99    955.43      0  01:48       4.697     0.000
  YS02001613              0.01    235.48      0  01:06       0.001     0.000
  YS02001616              0.48    383.86      0  01:06       0.006     0.000
  YS02001619              0.80    778.30      0  01:33       1.327     0.000
  YS02001622              0.01    481.29      0  01:06       0.005     0.000
  YS02001625              2.01   1505.25      0  01:55       8.309     0.000
  YS02001629              0.87    358.54      0  01:31       0.724     0.000
  YS02001644              1.74   2027.16      0  01:33       6.132     0.000
  YS02001649              0.01    378.91      0  01:08       0.008     0.000
  YS02001652              0.01    483.53      0  01:06       0.001     0.000
  YS02001655              0.01    303.64      0  01:07       0.001     0.000
  YS02001658              0.01    350.62      0  01:07       0.001     0.000
  YS02001661              0.01     83.37      0  01:07       0.000     0.000
  YS02001748              0.01    149.59      0  01:07       0.000     0.000
  YS02001751              0.01    188.58      0  01:07       0.001     0.000
  YS02001754              0.01    649.78      0  01:07       0.001     0.000
  YS02001757              0.01     99.39      0  01:07       0.001     0.000
  YS02001759              0.01     30.38      0  01:07       0.000     0.000
  YS02001762              0.01     32.88      0  01:07       0.000     0.000
  YS02001765              0.01    153.59      0  01:06       0.000     0.000
  YS02001767              0.01     15.30      0  01:07       0.000     0.000
  YS02001770              0.47    207.53      0  01:32       0.227     0.000
  YS02001779              1.40    851.47      0  01:35       2.757     0.000
  YS02001882              0.01     53.66      0  01:05       0.000     0.000
  YS02001884              0.01     58.51      0  01:05       0.000     0.000
  YS02001887              0.01      0.74      0  01:12       0.000     0.000
  YS02001890              1.06    524.43      0  01:31       1.262     0.000
  YS02001895              0.01      0.53      0  01:12       0.000     0.000
  YS02001898              0.01    444.60      0  01:05       0.002     0.000
  YS02001907              1.87   2880.63      0  01:30       9.982     0.000
  YS02001910              0.01      0.33      0  01:12       0.000     0.000
  YS02001915              0.41    229.34      0  01:31       0.236     0.000
  YS02001918              0.01    463.26      0  01:06       0.005     0.000
  YS02001920              0.01     29.29      0  01:06       0.000     0.000
  YS02001923              0.01    823.02      0  01:06       0.002     0.000
  YS02001926              0.01    977.63      0  01:06       0.002     0.000
  YS02001929              0.01   1006.71      0  01:06       0.011     0.000
  YS02163301              0.01      0.42      0  01:12       0.000     0.000
  YS02163601              0.01     11.61      0  01:06       0.000     0.000
  YS02164001              0.01      0.29      0  01:12       0.000     0.000
  
  
  **********************
  Storage Volume Summary
  **********************
  
  ------------------------------------------------------------------------------------------------
                         Average    Avg   Evap  Exfil     Maximum    Max    Time of Max    Maximum
                          Volume   Pcnt   Pcnt   Pcnt      Volume   Pcnt     Occurrence    Outflow
  Storage Unit           1000 m³   Full   Loss   Loss     1000 m³   Full    days hr:min        LPS
  ------------------------------------------------------------------------------------------------
  CC-storage               2.778   43.3    0.0    0.0       6.251   97.5       0  03:00    1783.53
  JK-storage               0.007    2.5    0.0    0.0       0.150   51.6       0  00:00    2300.00
  
  
  ***********************
  Outfall Loading Summary
  ***********************
  
  -----------------------------------------------------------
                         Flow       Avg       Max       Total
                         Freq      Flow      Flow      Volume
  Outfall Node           Pcnt       LPS       LPS    10^6 ltr
  -----------------------------------------------------------
  CC-1                  68.80    683.00    683.00       9.042
  CC-2                  68.80    683.00    683.00       9.042
  JK-1                  18.79   1000.00   1000.00       3.483
  JK-2                  18.79   1000.00   1000.00       3.483
  WSC                   99.95    334.69    553.86       7.233
  -----------------------------------------------------------
  System                55.02   3700.69   3900.38      32.283
  
  
  ********************
  Link Flow Summary
  ********************
  
  -----------------------------------------------------------------------------
                                 Maximum  Time of Max   Maximum    Max/    Max/
                                  |Flow|   Occurrence   |Veloc|    Full    Full
  Link                 Type          LPS  days hr:min     m/sec    Flow   Depth
  -----------------------------------------------------------------------------
  1                    CONDUIT    553.86     0  03:28      2.82    0.19    0.30
  WS02003060WS02003069 CONDUIT    552.02     0  03:26      1.64    0.22    0.34
  WS02003066WSF200     CONDUIT    535.50     0  03:26      2.85    0.09    0.22
  WS02003067WS02003066 CONDUIT    535.49     0  03:26      1.21    0.17    0.42
  WS02003069WS02003072 CONDUIT    552.28     0  03:27      1.37    0.27    0.39
  WS02003072WS02003073 CONDUIT    552.19     0  03:27      1.43    1.19    0.37
  WS02004401WS02004402 CONDUIT    538.05     0  03:15      1.22    0.65    0.86
  WS02004402WS02004403 CONDUIT    537.07     0  03:16      1.24    0.77    0.88
  WS02004403WS02004404 CONDUIT    536.09     0  03:24      1.24    0.39    0.93
  WS02004404WS02004405 CONDUIT    536.18     0  03:24      1.45    5.25    0.96
  WS02004405WS02004406 CONDUIT    536.25     0  03:24      1.46    1.06    0.96
  WS02004406WS02004407 CONDUIT    536.10     0  03:24      1.04    0.24    0.63
  WS02004407WS02004409 CONDUIT    536.04     0  03:24      1.59    0.19    0.48
  WS02004409WS02004410 CONDUIT    535.83     0  03:25      1.06    0.69    0.67
  WS02004410WS02004411 CONDUIT    535.66     0  03:25      1.12    0.73    0.69
  WS02004411WS02004412 CONDUIT    535.58     0  03:25      1.22    0.76    0.69
  WS02004412WS02004413 CONDUIT    535.57     0  03:25      1.22    0.36    0.78
  WS02004413WS02003067 CONDUIT    535.49     0  03:26      1.11    0.23    0.59
  WS02006109WS02006110 CONDUIT    555.61     0  03:28      1.11    1.07    1.00
  WS02006110WS02006113 CONDUIT    565.38     0  03:25      1.36    0.51    0.78
  WS02006111WS02006112 CONDUIT    542.85     0  03:23      1.95    0.26    0.67
  WS02006112WS02006115 CONDUIT    554.14     0  03:28      0.87    0.33    0.87
  WS02006113WS02006111 CONDUIT    560.72     0  03:19      2.47    0.67    0.46
  WS02006115WS02006116 CONDUIT    540.44     0  03:15      1.29    0.69    0.76
  WS02006116WS02004401 CONDUIT    539.97     0  03:26      1.21    0.74    0.84
  WS02006228WS02006109 CONDUIT    553.38     0  03:28      1.10    2.42    1.00
  WS02006229WS02006228 CONDUIT    552.52     0  03:28      1.12    1.83    1.00
  WS02006230WS02006229 CONDUIT    552.70     0  03:28      1.44   12.30    1.00
  WS02006231WS02006230 CONDUIT    587.47     0  03:11      1.60    8.91    1.00
  WS02006232WS02006231 CONDUIT    594.80     0  01:13      1.57    1.25    1.00
  WS02006234WS02006232 CONDUIT    593.53     0  01:13      1.54    1.20    1.00
  WS02006235WS02006234 CONDUIT    614.36     0  01:13      1.60    6.48    1.00
  WS02006238WS02006235 CONDUIT    428.08     0  03:24      1.51    0.96    1.00
  WS02006239WS02006238 CONDUIT    426.42     0  03:26      1.19    1.36    1.00
  WS02006240WS02006239 CONDUIT    424.87     0  03:26      1.29    1.34    1.00
  WS02006242WS02006240 CONDUIT    420.86     0  03:26      1.19    1.67    1.00
  WS02006243WS02006242 CONDUIT    420.54     0  04:09      1.41    0.90    1.00
  WS02006245WS02006243 CONDUIT    421.52     0  04:17      1.44    1.25    1.00
  WS02006247WS02006245 CONDUIT    422.37     0  04:17      1.43    3.35    1.00
  WS02006248WS02006247 CONDUIT    422.15     0  04:17      1.42    0.92    1.00
  WS02006249WS02006248 CONDUIT    423.15     0  04:17      1.37    2.32    1.00
  WS02006251WS02006249 CONDUIT    477.05     0  01:06      2.00    1.38    1.00
  WS02006252WS02006251 CONDUIT    405.46     0  01:12      5.69    1.49    1.00
  WS02006256WS02006235 CONDUIT    288.91     0  00:00      4.23    3.06    1.00
  WSF200WS02003060     CONDUIT    535.53     0  03:26      2.06    0.12    0.28
  YS02001580YS02001583 CONDUIT    330.73     0  01:04      1.34    1.28    1.00
  YS02001583YS02001586 CONDUIT    353.39     0  01:04      1.50    0.53    1.00
  YS02001586YS02001590 CONDUIT    318.74     0  01:37      1.48    0.56    1.00
  YS02001590YS02001593 CONDUIT    318.45     0  01:37      1.13    2.00    1.00
  YS02001593YS02001596 CONDUIT    318.27     0  02:10      1.66    0.50    1.00
  YS02001596YS02001600 CONDUIT    318.59     0  02:22      1.23    0.62    1.00
  YS02001600YS02001601 CONDUIT    318.79     0  02:10      1.13    0.55    1.00
  YS02001601YS02001602 CONDUIT    638.06     0  01:04      2.26    2.30    1.00
  YS02001602YS02001605 CONDUIT    637.82     0  01:04      2.26   13.50    1.00
  YS02001605YS02001607 CONDUIT    637.82     0  01:04      2.26    3.50    1.00
  YS02001607YS02001610 CONDUIT    719.40     0  01:05      1.11    0.68    1.00
  YS02001610YS02001613 CONDUIT    619.61     0  01:48      0.93    0.71    1.00
  YS02001613YS02001616 CONDUIT    619.70     0  01:17      0.99    0.53    1.00
  YS02001616YS02001619 CONDUIT    619.38     0  01:17      1.00    1.08    1.00
  YS02001619YS02001622 CONDUIT   1142.82     0  01:05      2.36    1.68    1.00
  YS02001622YS02001625 CONDUIT   1053.69     0  01:22      1.40    0.56    1.00
  YS02001625YS02001629 CONDUIT    923.48     0  01:05      1.35    0.44    1.00
  YS02001629YS02163301 CONDUIT    810.71     0  01:31      1.03    1.00    1.00
  YS02001633YS02163601 CONDUIT   1137.05     0  01:06      1.45    1.19    1.00
  YS02001641YS02001644 CONDUIT   1131.29     0  01:06      1.44    3.66    1.00
  YS02001644YS02001647 CONDUIT   1849.29     0  01:06      2.35    1.09    1.00
  YS02001647YS02001649 CONDUIT   1854.44     0  01:06      2.36    0.98    1.00
  YS02001649YS02001757 CONDUIT   1970.59     0  01:06      2.51    1.20    1.00
  YS02001652YS02001649 CONDUIT   1258.17     0  01:32      1.74    0.62    1.00
  YS02001655YS02001652 CONDUIT   1257.65     0  01:32      2.20    0.61    1.00
  YS02001658YS02001655 CONDUIT   1257.62     0  01:32      2.39    0.53    1.00
  YS02001661YS02001658 CONDUIT   1257.83     0  01:32      2.68    0.49    1.00
  YS02001664YS02001661 CONDUIT   1257.32     0  01:32      2.67    0.39    1.00
  YS02001745YS02001748 CONDUIT    737.85     0  01:32      2.59    0.28    1.00
  YS02001748YS02001751 CONDUIT    737.93     0  01:32      2.10    0.37    1.00
  YS02001751YS02001754 CONDUIT    738.06     0  01:32      2.08    0.36    1.00
  YS02001754YS02001757 CONDUIT    738.61     0  01:32      1.31    0.30    1.00
  YS02001757CaochengTiaoxuchi CONDUIT   3618.40     0  01:24      7.22    1.57    1.00
  YS02001759YS02001757 CONDUIT   1521.78     0  01:24      1.94    1.08    1.00
  YS02001762YS02001759 CONDUIT    706.02     0  01:07      0.90    0.81    1.00
  YS02001765YS02001762 CONDUIT    701.70     0  01:07      0.90    0.66    1.00
  YS02001767YS02001765 CONDUIT    705.01     0  01:07      0.98    0.89    1.00
  YS02001770YS02001767 CONDUIT    807.40     0  01:06      1.10    3.20    1.00
  YS02001774YS02001770 CONDUIT    852.09     0  01:23      1.08    0.54    1.00
  YS02001779YS02001774 CONDUIT    851.74     0  01:35      1.08    0.43    1.00
  YS02001783YS02001784 CONDUIT   1166.47     0  01:12      2.32    1.61    1.00
  YS02001784YS02001785 CONDUIT   1167.03     0  01:12      2.32    2.72    1.00
  YS02001786YS02001788 CONDUIT   1166.94     0  01:30      2.49    2.25    0.91
  YS02001788YS02001790 CONDUIT   1207.32     0  01:06      2.73    0.89    0.85
  YS02001790YS02001791 CONDUIT   1298.21     0  01:25      3.44    1.41    0.71
  YS02001791YS02001793 CONDUIT   1282.82     0  01:06      6.85    0.55    0.44
  YS02001793JiankangQianchi CONDUIT   1413.69     0  01:37     22.13    0.11    0.50
  YS02001882YS02001884 CONDUIT    184.49     0  01:05      0.64    0.21    1.00
  YS02001884YS02001887 CONDUIT    347.24     0  01:05      0.65    0.46    1.00
  YS02001887YS02001890 CONDUIT   1040.85     0  01:31      1.33    1.78    1.00
  YS02001890YS02001895 CONDUIT    584.48     0  01:05      0.89    0.27    1.00
  YS02001895YS02001898 CONDUIT    567.50     0  01:05      0.99    0.98    1.00
  YS02001898YS02001901 CONDUIT    557.46     0  01:06      0.72    0.36    1.00
  YS02001901YS02001904 CONDUIT    554.90     0  01:06      1.07    0.86    1.00
  YS02001904YS02001907 CONDUIT    557.48     0  01:06      0.76    0.20    1.00
  YS02001907YS02006553 CONDUIT    804.85     0  03:01      0.89    0.95    1.00
  YS02001910YS02001907 CONDUIT   1993.01     0  01:39      2.54    1.12    1.00
  YS02001915YS02001910 CONDUIT   1993.18     0  01:27      2.54    0.99    1.00
  YS02001918YS02001915 CONDUIT   1037.94     0  01:06      1.36    0.57    1.00
  YS02001920YS02001918 CONDUIT   1025.11     0  01:06      1.32    0.99    1.00
  YS02001923YS02001920 CONDUIT   1127.17     0  01:06      1.59    0.51    1.00
  YS02001926YS02001923 CONDUIT   1178.22     0  01:06      1.67    1.68    1.00
  YS02001929YS02001926 CONDUIT    856.53     0  01:06      1.36    0.41    1.00
  YS02006553YS02006556 CONDUIT    804.97     0  03:01      1.02    0.69    1.00
  YS02006556YS02006558 CONDUIT    806.28     0  03:01      1.03    0.64    1.00
  YS02006558YS02006561 CONDUIT   1213.15     0  01:06      4.29    2.68    1.00
  YS02006561YS02001783 CONDUIT   1166.36     0  01:12      2.32    0.60    1.00
  YS02163301YS02001633 CONDUIT    810.48     0  01:31      1.03    0.76    1.00
  YS02163601YS02164001 CONDUIT   1136.30     0  01:06      1.45    1.01    1.00
  YS02164001YS02001641 CONDUIT   1129.49     0  01:06      1.44    1.54    1.00
  CC-R1                PUMP       683.00     0  00:00              1.00
  CC-R2                PUMP       683.00     0  00:00              1.00
  CC-S1                PUMP       200.00     0  00:00              1.00
  CC-S2                PUMP       200.00     0  00:00              1.00
  JK-R1                PUMP      1000.00     0  00:00              1.00
  JK-R2                PUMP      1000.00     0  00:00              1.00
  JK-S                 PUMP       300.00     0  00:00              1.00
  
  
  ***************************
  Flow Classification Summary
  ***************************
  
  -------------------------------------------------------------------------------------
                      Adjusted    ---------- Fraction of Time in Flow Class ---------- 
                       /Actual         Up    Down  Sub   Sup   Up    Down  Norm  Inlet 
  Conduit               Length    Dry  Dry   Dry   Crit  Crit  Crit  Crit  Ltd   Ctrl  
  -------------------------------------------------------------------------------------
  1                       1.00   0.00  0.00  0.00  0.00  1.00  0.00  0.00  0.39  0.00
  WS02003060WS02003069    1.00   0.00  0.00  0.00  0.98  0.02  0.00  0.00  0.56  0.00
  WS02003066WSF200        1.00   0.05  0.00  0.00  0.00  0.95  0.00  0.00  0.78  0.00
  WS02003067WS02003066    1.00   0.05  0.00  0.00  0.95  0.00  0.00  0.00  0.00  0.00
  WS02003069WS02003072    1.00   0.00  0.00  0.00  0.99  0.01  0.00  0.00  0.57  0.00
  WS02003072WS02003073    1.00   0.00  0.00  0.00  0.00  0.00  0.00  1.00  0.00  0.00
  WS02004401WS02004402    1.00   0.02  0.00  0.00  0.98  0.00  0.00  0.00  0.00  0.00
  WS02004402WS02004403    1.00   0.02  0.00  0.00  0.98  0.00  0.00  0.00  0.00  0.00
  WS02004403WS02004404    1.00   0.00  0.03  0.00  0.97  0.00  0.00  0.00  0.00  0.00
  WS02004404WS02004405    1.00   0.00  0.00  0.00  1.00  0.00  0.00  0.00  0.01  0.00
  WS02004405WS02004406    1.00   0.00  0.00  0.00  1.00  0.00  0.00  0.00  0.00  0.00
  WS02004406WS02004407    1.00   0.00  0.03  0.00  0.97  0.00  0.00  0.00  0.00  0.00
  WS02004407WS02004409    1.00   0.03  0.00  0.00  0.95  0.02  0.00  0.00  0.95  0.00
  WS02004409WS02004410    1.00   0.03  0.00  0.00  0.96  0.00  0.00  0.00  0.00  0.00
  WS02004410WS02004411    1.00   0.04  0.00  0.00  0.96  0.00  0.00  0.00  0.00  0.00
  WS02004411WS02004412    1.00   0.04  0.00  0.00  0.96  0.00  0.00  0.00  0.00  0.00
  WS02004412WS02004413    1.00   0.04  0.00  0.00  0.96  0.00  0.00  0.00  0.00  0.00
  WS02004413WS02003067    1.00   0.04  0.01  0.00  0.00  0.00  0.95  0.00  0.00  0.00
  WS02006109WS02006110    1.00   0.00  0.01  0.00  0.98  0.00  0.01  0.00  0.00  0.00
  WS02006110WS02006113    1.00   0.01  0.01  0.00  0.98  0.00  0.00  0.00  0.00  0.00
  WS02006111WS02006112    1.00   0.02  0.00  0.00  0.98  0.00  0.00  0.00  0.98  0.00
  WS02006112WS02006115    1.00   0.02  0.00  0.00  0.97  0.00  0.00  0.00  0.00  0.00
  WS02006113WS02006111    1.00   0.02  0.00  0.00  0.00  0.98  0.00  0.00  0.17  0.00
  WS02006115WS02006116    1.00   0.02  0.00  0.00  0.97  0.00  0.00  0.01  0.00  0.00
  WS02006116WS02004401    1.00   0.02  0.00  0.00  0.98  0.00  0.00  0.00  0.00  0.00
  WS02006228WS02006109    1.00   0.00  0.00  0.00  1.00  0.00  0.00  0.00  0.00  0.00
  WS02006229WS02006228    1.00   0.00  0.00  0.00  0.99  0.00  0.00  0.01  0.00  0.00
  WS02006230WS02006229    1.00   0.00  0.00  0.00  0.99  0.00  0.00  0.01  0.01  0.00
  WS02006231WS02006230    1.00   0.00  0.00  0.00  0.44  0.00  0.55  0.00  0.00  0.00
  WS02006232WS02006231    1.00   0.00  0.00  0.00  0.98  0.00  0.02  0.00  0.00  0.00
  WS02006234WS02006232    1.00   0.00  0.00  0.00  1.00  0.00  0.00  0.00  0.01  0.00
  WS02006235WS02006234    1.00   0.00  0.00  0.00  0.98  0.00  0.02  0.00  0.00  0.00
  WS02006238WS02006235    1.00   0.00  0.00  0.00  1.00  0.00  0.00  0.00  0.00  0.00
  WS02006239WS02006238    1.00   0.00  0.00  0.00  1.00  0.00  0.00  0.00  0.17  0.00
  WS02006240WS02006239    1.00   0.00  0.00  0.00  0.72  0.00  0.00  0.28  0.04  0.00
  WS02006242WS02006240    1.00   0.00  0.00  0.00  0.99  0.00  0.01  0.00  0.02  0.00
  WS02006243WS02006242    1.00   0.00  0.00  0.00  0.99  0.00  0.00  0.01  0.47  0.00
  WS02006245WS02006243    1.00   0.00  0.00  0.00  0.68  0.00  0.00  0.32  0.01  0.00
  WS02006247WS02006245    1.00   0.00  0.00  0.00  0.99  0.00  0.00  0.01  0.00  0.00
  WS02006248WS02006247    1.00   0.00  0.00  0.00  0.99  0.00  0.00  0.01  0.19  0.00
  WS02006249WS02006248    1.00   0.00  0.00  0.00  0.52  0.00  0.48  0.00  0.00  0.00
  WS02006251WS02006249    1.00   0.00  0.00  0.00  0.99  0.00  0.00  0.00  0.49  0.00
  WS02006252WS02006251    1.00   0.00  0.09  0.00  0.30  0.00  0.61  0.00  0.00  0.00
  WS02006256WS02006235    1.00   0.00  0.00  0.00  0.99  0.01  0.00  0.00  0.00  0.00
  WSF200WS02003060        1.00   0.00  0.05  0.00  0.28  0.67  0.00  0.00  0.50  0.00
  YS02001580YS02001583    1.00   0.14  0.50  0.00  0.37  0.00  0.00  0.00  0.59  0.00
  YS02001583YS02001586    1.00   0.37  0.21  0.00  0.42  0.00  0.00  0.00  0.59  0.00
  YS02001586YS02001590    1.00   0.13  0.00  0.00  0.52  0.03  0.00  0.32  0.27  0.00
  YS02001590YS02001593    1.00   0.13  0.00  0.00  0.28  0.00  0.59  0.00  0.00  0.00
  YS02001593YS02001596    1.00   0.13  0.00  0.00  0.29  0.00  0.00  0.58  0.01  0.00
  YS02001596YS02001600    1.00   0.13  0.00  0.00  0.32  0.01  0.00  0.54  0.02  0.00
  YS02001600YS02001601    1.00   0.13  0.00  0.00  0.87  0.00  0.00  0.00  0.52  0.00
  YS02001601YS02001602    1.00   0.13  0.00  0.00  0.87  0.00  0.00  0.00  0.00  0.00
  YS02001602YS02001605    1.00   0.13  0.00  0.00  0.87  0.00  0.00  0.00  0.00  0.00
  YS02001605YS02001607    1.00   0.13  0.00  0.00  0.87  0.00  0.00  0.00  0.00  0.00
  YS02001607YS02001610    1.00   0.13  0.00  0.00  0.87  0.00  0.00  0.00  0.00  0.00
  YS02001610YS02001613    1.00   0.13  0.00  0.00  0.87  0.00  0.00  0.00  0.00  0.00
  YS02001613YS02001616    1.00   0.13  0.00  0.00  0.87  0.00  0.00  0.00  0.00  0.00
  YS02001616YS02001619    1.00   0.13  0.00  0.00  0.87  0.00  0.00  0.00  0.00  0.00
  YS02001619YS02001622    1.00   0.13  0.00  0.00  0.87  0.00  0.00  0.00  0.24  0.00
  YS02001622YS02001625    1.00   0.13  0.00  0.00  0.87  0.00  0.00  0.00  0.00  0.00
  YS02001625YS02001629    1.00   0.13  0.01  0.00  0.33  0.00  0.54  0.00  0.00  0.00
  YS02001629YS02163301    1.00   0.13  0.00  0.00  0.87  0.00  0.00  0.00  0.00  0.00
  YS02001633YS02163601    1.00   0.00  0.01  0.00  0.99  0.00  0.00  0.00  0.12  0.00
  YS02001641YS02001644    1.00   0.00  0.01  0.00  0.99  0.00  0.00  0.00  0.00  0.00
  YS02001644YS02001647    1.00   0.00  0.13  0.00  0.87  0.00  0.00  0.00  0.00  0.00
  YS02001647YS02001649    1.00   0.00  0.13  0.00  0.64  0.23  0.00  0.00  0.52  0.00
  YS02001649YS02001757    1.00   0.00  0.00  0.00  0.88  0.12  0.00  0.00  0.58  0.00
  YS02001652YS02001649    1.00   0.00  0.00  0.00  1.00  0.00  0.00  0.00  0.62  0.00
  YS02001655YS02001652    1.00   0.00  0.00  0.00  0.35  0.00  0.00  0.65  0.02  0.00
  YS02001658YS02001655    1.00   0.00  0.13  0.00  0.83  0.04  0.00  0.00  0.55  0.00
  YS02001661YS02001658    1.00   0.13  0.00  0.00  0.68  0.19  0.00  0.00  0.58  0.00
  YS02001664YS02001661    1.00   0.13  0.00  0.00  0.86  0.02  0.00  0.00  0.63  0.00
  YS02001745YS02001748    1.00   0.00  0.00  0.00  0.31  0.00  0.00  0.69  0.03  0.00
  YS02001748YS02001751    1.00   0.00  0.00  0.00  0.98  0.02  0.00  0.00  0.67  0.00
  YS02001751YS02001754    1.00   0.00  0.00  0.00  0.35  0.00  0.00  0.65  0.02  0.00
  YS02001754YS02001757    1.00   0.00  0.00  0.00  1.00  0.00  0.00  0.00  0.64  0.00
  YS02001757CaochengTiaoxuchi    1.00   0.00  0.00  0.00  0.41  0.59  0.00  0.00  0.16  0.00
  YS02001759YS02001757    1.00   0.00  0.00  0.00  0.99  0.01  0.00  0.00  0.61  0.00
  YS02001762YS02001759    1.00   0.00  0.00  0.00  1.00  0.00  0.00  0.00  0.01  0.00
  YS02001765YS02001762    1.00   0.00  0.00  0.00  1.00  0.00  0.00  0.00  0.61  0.00
  YS02001767YS02001765    1.00   0.00  0.00  0.00  1.00  0.00  0.00  0.00  0.00  0.00
  YS02001770YS02001767    1.00   0.00  0.00  0.00  1.00  0.00  0.00  0.00  0.00  0.00
  YS02001774YS02001770    1.00   0.00  0.12  0.00  0.74  0.00  0.13  0.00  0.00  0.00
  YS02001779YS02001774    1.00   0.00  0.00  0.00  1.00  0.00  0.00  0.00  0.64  0.00
  YS02001783YS02001784    1.00   0.00  0.13  0.00  0.87  0.00  0.00  0.00  0.52  0.00
  YS02001784YS02001785    1.00   0.00  0.00  0.00  1.00  0.00  0.00  0.00  0.12  0.00
  YS02001786YS02001788    1.00   0.00  0.00  0.00  0.89  0.11  0.00  0.00  0.00  0.00
  YS02001788YS02001790    1.00   0.00  0.00  0.00  0.25  0.75  0.00  0.00  0.72  0.00
  YS02001790YS02001791    1.00   0.00  0.00  0.00  0.01  0.99  0.00  0.00  0.09  0.00
  YS02001791YS02001793    1.00   0.00  0.00  0.00  0.00  1.00  0.00  0.00  0.04  0.00
  YS02001793JiankangQianchi    1.00   0.00  0.00  0.00  0.37  0.63  0.00  0.00  0.78  0.00
  YS02001882YS02001884    1.00   0.13  0.00  0.00  0.87  0.00  0.00  0.00  0.00  0.00
  YS02001884YS02001887    1.00   0.06  0.05  0.00  0.89  0.00  0.00  0.00  0.00  0.00
  YS02001887YS02001890    1.00   0.00  0.00  0.00  0.97  0.00  0.03  0.00  0.00  0.00
  YS02001890YS02001895    1.00   0.00  0.13  0.00  0.87  0.00  0.00  0.00  0.00  0.00
  YS02001895YS02001898    1.00   0.13  0.00  0.00  0.86  0.00  0.00  0.00  0.00  0.00
  YS02001898YS02001901    1.00   0.13  0.00  0.00  0.87  0.00  0.00  0.00  0.00  0.00
  YS02001901YS02001904    1.00   0.13  0.00  0.00  0.87  0.00  0.00  0.00  0.00  0.00
  YS02001904YS02001907    1.00   0.00  0.13  0.00  0.87  0.00  0.00  0.00  0.00  0.00
  YS02001907YS02006553    1.00   0.00  0.02  0.00  0.98  0.00  0.00  0.00  0.00  0.00
  YS02001910YS02001907    1.00   0.00  0.00  0.00  0.97  0.00  0.00  0.03  0.10  0.00
  YS02001915YS02001910    1.00   0.00  0.00  0.00  0.98  0.02  0.00  0.00  0.10  0.00
  YS02001918YS02001915    1.00   0.00  0.01  0.00  0.98  0.02  0.00  0.00  0.61  0.00
  YS02001920YS02001918    1.00   0.00  0.01  0.00  0.99  0.00  0.00  0.00  0.00  0.00
  YS02001923YS02001920    1.00   0.00  0.00  0.00  1.00  0.00  0.00  0.00  0.74  0.00
  YS02001926YS02001923    1.00   0.00  0.07  0.00  0.25  0.00  0.68  0.00  0.00  0.00
  YS02001929YS02001926    1.00   0.00  0.13  0.00  0.87  0.00  0.00  0.00  0.62  0.00
  YS02006553YS02006556    1.00   0.01  0.00  0.00  0.99  0.00  0.00  0.00  0.03  0.00
  YS02006556YS02006558    1.00   0.00  0.00  0.00  1.00  0.00  0.00  0.00  0.00  0.00
  YS02006558YS02006561    1.00   0.13  0.00  0.00  0.25  0.62  0.00  0.00  0.12  0.00
  YS02006561YS02001783    1.00   0.13  0.00  0.00  0.26  0.61  0.00  0.00  0.59  0.00
  YS02163301YS02001633    1.00   0.00  0.13  0.00  0.87  0.00  0.00  0.00  0.00  0.00
  YS02163601YS02164001    1.00   0.00  0.08  0.00  0.92  0.00  0.00  0.00  0.00  0.00
  YS02164001YS02001641    1.00   0.01  0.08  0.00  0.92  0.00  0.00  0.00  0.05  0.00
  
  
  *************************
  Conduit Surcharge Summary
  *************************
  
  ----------------------------------------------------------------------------
                                                           Hours        Hours 
                         --------- Hours Full --------   Above Full   Capacity
  Conduit                Both Ends  Upstream  Dnstream   Normal Flow   Limited
  ----------------------------------------------------------------------------
  WS02003072WS02003073        0.01      0.01      0.01      2.53         0.01
  WS02004404WS02004405        0.01      0.01      0.01      4.12         0.01
  WS02004405WS02004406        0.01      0.01      0.01      1.90         0.01
  WS02006109WS02006110        0.57      0.57      3.43      0.88         0.01
  WS02006110WS02006113        0.01      0.01      3.41      0.01         0.01
  WS02006111WS02006112        0.01      0.01      3.48      0.01         0.01
  WS02006112WS02006115        0.01      0.01      2.09      0.01         0.01
  WS02006228WS02006109        3.36      3.44      3.36      3.70         3.36
  WS02006229WS02006228        3.34      3.37      3.34      3.60         3.33
  WS02006230WS02006229        3.50      3.54      3.50      4.41         3.50
  WS02006231WS02006230        0.62      0.62      2.16      4.15         0.01
  WS02006232WS02006231        1.75      1.75      3.46      1.69         0.01
  WS02006234WS02006232        3.06      3.07      3.46      1.61         1.39
  WS02006235WS02006234        2.27      2.38      2.88      4.03         0.23
  WS02006238WS02006235        3.04      3.04      3.47      0.01         0.15
  WS02006239WS02006238        3.22      3.46      3.22      3.58         2.71
  WS02006240WS02006239        3.31      3.40      3.31      3.58         2.64
  WS02006242WS02006240        3.38      3.38      3.52      3.69         0.04
  WS02006243WS02006242        3.41      3.41      3.49      0.01         0.58
  WS02006245WS02006243        3.40      3.41      3.40      3.21         2.35
  WS02006247WS02006245        3.40      3.43      3.40      3.78         3.08
  WS02006248WS02006247        3.40      3.40      3.42      0.01         0.67
  WS02006249WS02006248        3.39      3.39      3.40      3.77         0.01
  WS02006251WS02006249        3.40      3.41      3.40      3.71         3.01
  WS02006252WS02006251        3.78      3.78      3.78      3.78         0.01
  WS02006256WS02006235        3.62      4.07      5.95      2.12         0.02
  YS02001580YS02001583        2.02      2.02      2.05      0.01         0.01
  YS02001583YS02001586        2.03      2.03      2.12      0.01         0.01
  YS02001586YS02001590        2.13      2.13      2.17      0.01         0.01
  YS02001590YS02001593        2.16      2.17      2.17      2.20         0.01
  YS02001593YS02001596        2.17      2.17      2.23      0.01         0.01
  YS02001596YS02001600        2.24      2.24      2.31      0.01         0.01
  YS02001600YS02001601        2.34      2.34      2.48      0.01         0.01
  YS02001601YS02001602        2.44      2.44      2.50      2.24         0.01
  YS02001602YS02001605        2.42      2.42      2.44      2.92         0.01
  YS02001605YS02001607        2.41      2.42      2.43      2.34         2.31
  YS02001607YS02001610        2.19      2.19      2.20      0.01         0.01
  YS02001610YS02001613        2.19      2.19      2.20      0.01         0.01
  YS02001613YS02001616        2.16      2.16      2.19      0.01         0.01
  YS02001616YS02001619        2.15      2.15      2.16      0.81         0.41
  YS02001619YS02001622        2.15      2.15      2.15      2.07         1.96
  YS02001622YS02001625        2.15      2.15      2.29      0.01         0.01
  YS02001625YS02001629        2.13      2.13      2.29      0.01         0.01
  YS02001629YS02163301        2.31      2.31      2.32      0.01         0.01
  YS02001633YS02163601        2.34      2.34      2.38      0.02         0.01
  YS02001641YS02001644        2.34      2.35      2.34      2.56         2.09
  YS02001644YS02001647        2.22      2.22      2.34      0.02         0.01
  YS02001647YS02001649        2.22      2.22      2.35      0.01         0.01
  YS02001649YS02001757        2.35      2.35      2.43      0.02         0.01
  YS02001652YS02001649        2.21      2.21      2.35      0.01         0.01
  YS02001655YS02001652        2.07      2.07      2.20      0.01         0.01
  YS02001658YS02001655        1.90      1.90      2.07      0.01         0.01
  YS02001661YS02001658        0.81      0.81      1.90      0.01         0.01
  YS02001664YS02001661        0.01      0.01      1.15      0.01         0.01
  YS02001745YS02001748        0.01      0.01      1.88      0.01         0.01
  YS02001748YS02001751        1.91      1.91      2.03      0.01         0.01
  YS02001751YS02001754        2.03      2.03      2.16      0.01         0.01
  YS02001754YS02001757        2.19      2.19      2.43      0.01         0.01
  YS02001757CaochengTiaoxuchi        2.02      2.43      2.44      1.13         0.71
  YS02001759YS02001757        2.36      2.36      2.43      0.46         0.47
  YS02001762YS02001759        2.33      2.33      2.36      0.01         0.01
  YS02001765YS02001762        2.29      2.29      2.33      0.01         0.01
  YS02001767YS02001765        2.26      2.26      2.29      0.01         0.01
  YS02001770YS02001767        2.26      2.26      2.26      1.97         1.86
  YS02001774YS02001770        2.25      2.25      2.31      0.01         0.01
  YS02001779YS02001774        2.14      2.14      2.31      0.01         0.01
  YS02001783YS02001784        1.98      1.99      1.98      2.05         1.98
  YS02001784YS02001785        1.92      1.98      1.92      2.11         1.92
  YS02001786YS02001788        0.01      1.92      0.01      2.08         0.01
  YS02001790YS02001791        0.01      0.01      0.01      1.97         0.01
  YS02001882YS02001884        1.97      1.97      1.97      0.01         0.01
  YS02001884YS02001887        1.98      1.98      1.99      0.01         0.01
  YS02001887YS02001890        1.99      1.99      2.00      0.91         0.01
  YS02001890YS02001895        1.96      1.96      2.01      0.01         0.01
  YS02001895YS02001898        1.95      1.95      1.96      0.01         0.01
  YS02001898YS02001901        1.96      1.96      1.98      0.01         0.01
  YS02001901YS02001904        1.98      1.98      1.98      0.01         0.01
  YS02001904YS02001907        1.98      1.98      2.08      0.01         0.01
  YS02001907YS02006553        2.11      2.11      2.14      0.01         0.01
  YS02001910YS02001907        2.00      2.00      2.07      0.54         0.55
  YS02001915YS02001910        1.96      1.96      2.00      0.01         0.08
  YS02001918YS02001915        1.92      1.92      1.96      0.01         0.01
  YS02001920YS02001918        1.92      1.92      1.92      0.01         0.01
  YS02001923YS02001920        1.89      1.89      1.92      0.01         0.01
  YS02001926YS02001923        0.92      0.93      1.03      0.36         0.01
  YS02001929YS02001926        0.66      0.66      1.03      0.01         0.01
  YS02006553YS02006556        2.04      2.04      2.08      0.01         0.01
  YS02006556YS02006558        2.06      2.06      2.08      0.01         0.01
  YS02006558YS02006561        1.93      2.03      1.93      2.10         1.93
  YS02006561YS02001783        1.90      1.90      1.99      0.01         0.01
  YS02163301YS02001633        2.32      2.32      2.35      0.01         0.01
  YS02163601YS02164001        2.33      2.33      2.38      0.01         0.01
  YS02164001YS02001641        2.33      2.33      2.35      0.17         0.45
  
  
  ***************
  Pumping Summary
  ***************
  
  ---------------------------------------------------------------------------------------------------------
                                                  Min       Avg       Max     Total     Power    % Time Off
                        Percent   Number of      Flow      Flow      Flow    Volume     Usage    Pump Curve
  Pump                 Utilized   Start-Ups       LPS       LPS       LPS  10^6 ltr     Kw-hr    Low   High
  ---------------------------------------------------------------------------------------------------------
  CC-R1                   46.45           2      0.00    683.00    683.00     9.041    169.38    0.0   63.4
  CC-R2                   46.45           2      0.00    683.00    683.00     9.041    169.38    0.0   63.4
  CC-S1                   47.77           3      0.00    200.00    200.00     2.723     15.05    0.0   41.6
  CC-S2                   47.77           3      0.00    200.00    200.00     2.723     15.05    0.0   41.6
  JK-R1                   12.39         156      0.00   1000.00   1000.00     3.531      9.98    0.0    0.0
  JK-R2                   12.39         156      0.00   1000.00   1000.00     3.531      9.98    0.0    0.0
  JK-S                    26.66         180      0.00    299.96    300.00     2.279     51.09    0.0    0.0
  

  Analysis begun on:  Thu Feb 27 17:15:44 2025
  Analysis ended on:  Thu Feb 27 17:15:46 2025
  Total elapsed time: 00:00:02