
  EPA STORM WATER MANAGEMENT MODEL - VERSION 5.2 (Build 5.2.4)
  PYSWMM TOOLKIT API - VERSION v1.0 (2023-11-27)
  ------------------------------------------------------------

  WARNING 04: minimum elevation drop used for Conduit WS02004404WS02004405
  WARNING 03: negative offset ignored for Link YS02001904YS02001907
  
  ****************
  Analysis Options
  ****************
  Flow Units ............... LPS
  Process Models:
    Rainfall/Runoff ........ YES
    RDII ................... NO
    Snowmelt ............... NO
    Groundwater ............ NO
    Flow Routing ........... YES
    Ponding Allowed ........ NO
    Water Quality .......... NO
  Infiltration Method ...... HORTON
  Flow Routing Method ...... DYNWAVE
  Surcharge Method ......... EXTRAN
  Starting Date ............ 08/28/2015 08:00:00
  Ending Date .............. 08/28/2015 16:00:00
  Antecedent Dry Days ...... 8.0
  Report Time Step ......... 00:01:00
  Wet Time Step ............ 00:01:00
  Dry Time Step ............ 00:01:00
  Routing Time Step ........ 30.00 sec
  Variable Time Step ....... YES
  Maximum Trials ........... 8
  Number of Threads ........ 4
  Head Tolerance ........... 0.001500 m
  
  
  **************************        Volume         Depth
  Runoff Quantity Continuity     hectare-m            mm
  **************************     ---------       -------
  Total Precipitation ......         2.979        89.823
  Evaporation Loss .........         0.000         0.000
  Infiltration Loss ........         0.105         3.180
  Surface Runoff ...........         2.841        85.662
  Final Storage ............         0.033         0.999
  Continuity Error (%) .....        -0.021
  
  
  **************************        Volume        Volume
  Flow Routing Continuity        hectare-m      10^6 ltr
  **************************     ---------     ---------
  Dry Weather Inflow .......         0.025         0.248
  Wet Weather Inflow .......         2.841        28.411
  Groundwater Inflow .......         0.000         0.000
  RDII Inflow ..............         0.000         0.000
  External Inflow ..........         0.083         0.825
  External Outflow .........         2.053        20.529
  Flooding Loss ............         1.106        11.061
  Evaporation Loss .........         0.000         0.000
  Exfiltration Loss ........         0.000         0.000
  Initial Stored Volume ....         0.243         2.431
  Final Stored Volume ......         0.048         0.475
  Continuity Error (%) .....        -0.472
  
  
  *************************
  Highest Continuity Errors
  *************************
  Node YS02001884 (5.07%)
  Node WS02006256 (-3.63%)
  Node YS02001583 (-2.32%)
  Node JK-storage (-1.39%)
  
  
  ***************************
  Time-Step Critical Elements
  ***************************
  Link WS02006238WS02006235 (28.84%)
  Link WS02004404WS02004405 (20.91%)
  Link WS02003066WSF200 (12.68%)
  Link YS02001793JiankangQianchi (9.10%)
  Link YS02001791YS02001793 (5.69%)
  
  
  ********************************
  Highest Flow Instability Indexes
  ********************************
  Link WS02006113WS02006111 (38)
  Link WS02006252WS02006251 (29)
  Link WS02004404WS02004405 (27)
  Link WS02004403WS02004404 (24)
  Link WS02006238WS02006235 (23)
  
  
  *********************************
  Most Frequent Nonconverging Nodes
  *********************************
  Node CC-1 (37.01%)
  Node CC-2 (37.01%)
  Node JK-1 (37.01%)
  Node JK-2 (37.01%)
  Node WSC (37.01%)
  
  
  *************************
  Routing Time Step Summary
  *************************
  Minimum Time Step           :     0.00 sec
  Average Time Step           :     2.70 sec
  Maximum Time Step           :     6.43 sec
  % of Time in Steady State   :     0.00
  Average Iterations per Step :     4.62
  % of Steps Not Converging   :    37.01
  Time Step Frequencies       :
     30.000 - 13.228 sec      :     0.00 %
     13.228 -  5.833 sec      :    12.09 %
      5.833 -  2.572 sec      :    29.03 %
      2.572 -  1.134 sec      :    40.68 %
      1.134 -  0.500 sec      :    18.21 %
  
  
  ***************************
  Subcatchment Runoff Summary
  ***************************
  
  ------------------------------------------------------------------------------------------------------------------------------
                            Total      Total      Total      Total     Imperv       Perv      Total       Total     Peak  Runoff
                           Precip      Runon       Evap      Infil     Runoff     Runoff     Runoff      Runoff   Runoff   Coeff
  Subcatchment                 mm         mm         mm         mm         mm         mm         mm    10^6 ltr      LPS
  ------------------------------------------------------------------------------------------------------------------------------
  sub60                     89.82       0.00       0.00       1.87      77.85       8.91      86.75        1.14   783.18   0.966
  sub61                     89.82       0.00       0.00       2.73      73.43      12.55      85.98        1.58  1090.30   0.957
  sub62                     89.82       0.00       0.00       1.25      81.35       5.94      87.29        2.39  1553.01   0.972
  sub63                     89.82       0.00       0.00       5.08      62.81      20.98      83.78        1.90  1265.33   0.933
  sub64                     89.82       0.00       0.00       2.56      75.14      10.92      86.06        2.07  1291.45   0.958
  sub65                     89.82       0.00       0.00       2.22      76.89       9.46      86.36        2.38  1448.32   0.961
  sub66                     89.82       0.00       0.00       6.37      62.69      19.68      82.38        3.84  2017.05   0.917
  sub67                     89.82       0.00       0.00       1.19      81.40       5.99      87.39        1.63  1153.20   0.973
  sub68                     89.82       0.00       0.00       2.26      76.06      10.32      86.38        2.38  1588.50   0.962
  sub69                     89.82       0.00       0.00       2.06      76.24      11.42      87.66        3.25  1925.68   0.976
  sub70                     89.82       0.00       0.00       6.97      59.11      23.57      82.69        2.39  1139.95   0.921
  sub71                     89.82       0.00       0.00       1.29      81.31       5.90      87.21        2.28  1392.38   0.971
  sub72                     89.82       0.00       0.00       1.15      82.13       5.14      87.27        1.20   683.49   0.972
  
  
  ******************
  Node Depth Summary
  ******************
  
  ---------------------------------------------------------------------------------
                                 Average  Maximum  Maximum  Time of Max    Reported
                                   Depth    Depth      HGL   Occurrence   Max Depth
  Node                 Type       Meters   Meters   Meters  days hr:min      Meters
  ---------------------------------------------------------------------------------
  WS02003060           JUNCTION     0.25     0.38     5.32     0  03:17        0.38
  WS02003066           JUNCTION     0.20     0.30     5.85     0  03:16        0.30
  WS02003067           JUNCTION     0.51     0.70     6.02     0  03:16        0.70
  WS02003069           JUNCTION     0.27     0.43     5.01     0  03:18        0.43
  WS02003072           JUNCTION     0.34     0.50     4.87     0  03:18        0.50
  WS02003073           JUNCTION     0.19     0.30     4.36     0  03:19        0.30
  WS02004401           JUNCTION     0.62     0.87     6.87     0  03:14        0.87
  WS02004402           JUNCTION     0.65     0.90     6.86     0  03:14        0.90
  WS02004403           JUNCTION     0.67     0.92     6.85     0  03:15        0.91
  WS02004404           JUNCTION     0.74     1.07     6.92     0  01:58        0.99
  WS02004405           JUNCTION     0.73     0.97     6.82     0  03:14        0.96
  WS02004406           JUNCTION     0.74     0.96     6.79     0  03:15        0.96
  WS02004407           JUNCTION     0.18     0.30     6.61     0  03:15        0.30
  WS02004409           JUNCTION     0.41     0.67     6.44     0  03:16        0.67
  WS02004410           JUNCTION     0.44     0.68     6.40     0  03:16        0.68
  WS02004411           JUNCTION     0.46     0.69     6.37     0  03:16        0.69
  WS02004412           JUNCTION     0.47     0.70     6.34     0  03:16        0.70
  WS02004413           JUNCTION     0.63     0.86     6.33     0  03:16        0.86
  WS02006109           JUNCTION     0.70     1.28     7.90     0  01:56        1.14
  WS02006110           JUNCTION     0.69     1.39     7.97     0  01:55        1.13
  WS02006111           JUNCTION     0.19     0.29     7.00     0  03:07        0.29
  WS02006112           JUNCTION     0.78     1.12     7.00     0  03:22        1.07
  WS02006113           JUNCTION     0.29     0.46     7.35     0  03:07        0.46
  WS02006115           JUNCTION     0.51     0.77     6.91     0  03:14        0.77
  WS02006116           JUNCTION     0.59     0.85     6.89     0  03:15        0.85
  WS02006228           JUNCTION     0.70     1.28     7.93     0  01:56        1.13
  WS02006229           JUNCTION     0.68     1.33     8.02     0  01:56        1.17
  WS02006230           JUNCTION     0.70     1.56     8.31     0  01:56        1.29
  WS02006231           JUNCTION     0.49     2.24     9.36     0  01:57        1.04
  WS02006232           JUNCTION     0.63     2.18     9.22     0  02:26        2.18
  WS02006234           JUNCTION     0.57     1.96     9.12     0  01:57        1.96
  WS02006235           JUNCTION     0.61     2.00     9.16     0  01:57        2.00
  WS02006238           JUNCTION     0.64     2.15     9.29     0  02:26        2.15
  WS02006239           JUNCTION     0.62     2.03     9.24     0  02:00        2.03
  WS02006240           JUNCTION     0.59     2.10     9.39     0  02:26        2.10
  WS02006242           JUNCTION     0.66     1.55     8.82     0  01:51        1.55
  WS02006243           JUNCTION     0.59     1.48     8.90     0  02:10        1.48
  WS02006245           JUNCTION     0.59     1.56     9.04     0  02:26        1.56
  WS02006247           JUNCTION     0.61     1.47     8.97     0  01:50        1.47
  WS02006248           JUNCTION     0.58     1.10     8.69     0  01:52        1.10
  WS02006249           JUNCTION     0.61     1.09     8.69     0  01:36        1.09
  WS02006251           JUNCTION     0.61     1.38     9.05     0  01:52        1.25
  WS02006252           JUNCTION     0.38     1.50     9.74     0  00:00        0.99
  WS02006256           JUNCTION     1.17     2.35     9.28     0  00:00        2.35
  WSF200               JUNCTION     0.18     0.29     5.52     0  03:16        0.29
  YS02001580           JUNCTION     0.18     0.99     9.53     0  02:03        0.82
  YS02001583           JUNCTION     0.21     0.99     9.49     0  02:03        0.82
  YS02001586           JUNCTION     0.33     1.13     9.30     0  02:03        1.13
  YS02001590           JUNCTION     0.45     1.40     9.26     0  02:28        1.40
  YS02001593           JUNCTION     0.38     1.34     9.20     0  02:28        1.34
  YS02001596           JUNCTION     0.52     1.73     9.15     0  02:28        1.73
  YS02001600           JUNCTION     0.61     1.87     9.00     0  02:03        1.87
  YS02001601           JUNCTION     0.80     2.06     8.90     0  02:02        2.06
  YS02001602           JUNCTION     0.70     1.87     8.77     0  02:08        1.87
  YS02001605           JUNCTION     0.64     1.78     8.68     0  02:16        1.78
  YS02001607           JUNCTION     0.59     1.65     8.49     0  02:17        1.64
  YS02001610           JUNCTION     0.63     1.68     8.48     0  02:10        1.68
  YS02001613           JUNCTION     0.59     1.70     8.54     0  02:28        1.70
  YS02001616           JUNCTION     0.53     1.61     8.52     0  02:21        1.61
  YS02001619           JUNCTION     0.51     1.61     8.54     0  02:21        1.61
  YS02001622           JUNCTION     0.50     1.59     8.49     0  02:29        1.58
  YS02001625           JUNCTION     0.73     1.78     8.38     0  02:10        1.78
  YS02001629           JUNCTION     0.64     1.85     8.40     0  02:13        1.85
  YS02001633           JUNCTION     0.71     2.05     8.50     0  02:24        2.05
  YS02001641           JUNCTION     0.66     1.95     8.39     0  02:28        1.95
  YS02001644           JUNCTION     0.65     1.92     8.35     0  02:15        1.92
  YS02001647           JUNCTION     0.42     1.77     8.38     0  02:28        1.77
  YS02001649           JUNCTION     0.47     2.00     8.39     0  02:23        2.00
  YS02001652           JUNCTION     0.35     1.88     8.48     0  02:24        1.87
  YS02001655           JUNCTION     0.26     1.92     8.77     0  02:15        1.70
  YS02001658           JUNCTION     0.19     1.89     9.03     0  02:15        1.48
  YS02001661           JUNCTION     0.20     1.32     8.73     0  02:24        1.31
  YS02001664           JUNCTION     0.09     0.84     8.77     0  02:24        0.82
  YS02001745           JUNCTION     0.10     0.92     8.44     0  02:24        0.91
  YS02001748           JUNCTION     0.17     1.34     8.41     0  02:24        1.32
  YS02001751           JUNCTION     0.21     1.50     8.38     0  02:24        1.50
  YS02001754           JUNCTION     0.29     1.74     8.35     0  02:24        1.74
  YS02001757           JUNCTION     0.47     2.06     8.32     0  02:24        2.06
  YS02001759           JUNCTION     0.42     2.09     8.45     0  02:24        2.09
  YS02001762           JUNCTION     0.40     2.05     8.45     0  02:24        2.05
  YS02001765           JUNCTION     0.38     2.00     8.45     0  02:28        2.00
  YS02001767           JUNCTION     0.38     1.97     8.46     0  02:28        1.96
  YS02001770           JUNCTION     0.39     1.95     8.44     0  02:22        1.95
  YS02001774           JUNCTION     0.45     2.00     8.43     0  02:28        2.00
  YS02001779           JUNCTION     0.28     1.68     8.37     0  02:12        1.68
  YS02001783           JUNCTION     0.37     1.25     7.40     0  02:24        1.25
  YS02001784           JUNCTION     0.37     1.13     7.20     0  02:24        1.13
  YS02001786           JUNCTION     0.30     0.89     6.92     0  02:24        0.88
  YS02001788           JUNCTION     0.22     0.63     6.60     0  02:24        0.63
  YS02001790           JUNCTION     0.26     0.72     6.37     0  02:18        0.71
  YS02001791           JUNCTION     0.16     0.44     5.91     0  02:20        0.43
  YS02001793           JUNCTION     0.09     0.26     5.10     0  02:20        0.26
  YS02001882           JUNCTION     0.45     1.71     8.43     0  02:28        1.69
  YS02001884           JUNCTION     0.54     1.79     8.41     0  02:28        1.79
  YS02001887           JUNCTION     0.61     1.88     8.42     0  02:24        1.88
  YS02001890           JUNCTION     0.64     1.81     8.32     0  02:10        1.81
  YS02001895           JUNCTION     0.42     1.57     8.31     0  02:18        1.56
  YS02001898           JUNCTION     0.43     1.57     8.31     0  02:28        1.57
  YS02001901           JUNCTION     0.53     1.71     8.32     0  02:28        1.71
  YS02001904           JUNCTION     0.52     1.64     8.27     0  02:28        1.64
  YS02001907           JUNCTION     0.82     1.96     8.25     0  02:11        1.96
  YS02001910           JUNCTION     0.64     2.01     8.52     0  02:25        2.01
  YS02001915           JUNCTION     0.47     2.00     8.72     0  02:23        2.00
  YS02001918           JUNCTION     0.30     1.72     8.79     0  02:23        1.71
  YS02001920           JUNCTION     0.37     1.82     8.83     0  02:26        1.82
  YS02001923           JUNCTION     0.24     1.58     8.84     0  02:23        1.58
  YS02001926           JUNCTION     0.25     1.43     8.87     0  02:23        1.43
  YS02001929           JUNCTION     0.16     1.21     8.90     0  02:23        1.20
  YS02006553           JUNCTION     0.82     1.99     8.27     0  02:24        1.99
  YS02006556           JUNCTION     0.79     2.00     8.31     0  02:24        2.00
  YS02006558           JUNCTION     0.83     2.06     8.32     0  02:24        2.06
  YS02006561           JUNCTION     0.23     0.93     7.59     0  02:10        0.91
  YS02163301           JUNCTION     0.66     1.93     8.45     0  02:24        1.93
  YS02163601           JUNCTION     0.73     2.05     8.45     0  02:24        2.05
  YS02164001           JUNCTION     0.65     1.95     8.41     0  02:25        1.95
  CC-1                 OUTFALL      0.00     0.00     0.00     0  00:00        0.00
  CC-2                 OUTFALL      0.00     0.00     0.00     0  00:00        0.00
  JK-1                 OUTFALL      0.00     0.00     0.00     0  00:00        0.00
  JK-2                 OUTFALL      0.00     0.00     0.00     0  00:00        0.00
  WSC                  OUTFALL      0.19     0.30     0.97     0  03:19        0.30
  CC-storage           STORAGE      0.34     1.23     6.73     0  02:56        1.23
  JK-storage           STORAGE      0.14     2.99     3.79     0  00:00        0.68
  
  
  *******************
  Node Inflow Summary
  *******************
  
  -------------------------------------------------------------------------------------------------
                                  Maximum  Maximum                  Lateral       Total        Flow
                                  Lateral    Total  Time of Max      Inflow      Inflow     Balance
                                   Inflow   Inflow   Occurrence      Volume      Volume       Error
  Node                 Type           LPS      LPS  days hr:min    10^6 ltr    10^6 ltr     Percent
  -------------------------------------------------------------------------------------------------
  WS02003060           JUNCTION     16.53   554.48     0  03:17       0.471        5.63       0.035
  WS02003066           JUNCTION      0.00   537.66     0  03:17           0        5.16       0.030
  WS02003067           JUNCTION      0.00   537.55     0  03:17           0        5.17       0.079
  WS02003069           JUNCTION      0.32   554.89     0  03:17     0.00912        5.64       0.068
  WS02003072           JUNCTION      0.00   554.54     0  03:18           0        5.64       0.128
  WS02003073           JUNCTION      1.82   555.94     0  03:19      0.0519        5.68       0.095
  WS02004401           JUNCTION      0.00   538.61     0  03:17           0        5.27       0.208
  WS02004402           JUNCTION      0.00   540.48     0  03:17           0        5.25       0.204
  WS02004403           JUNCTION      0.00   539.76     0  03:14           0        5.24       0.194
  WS02004404           JUNCTION      0.16   560.37     0  03:15     0.00462        5.24       0.125
  WS02004405           JUNCTION      0.04   610.65     0  01:58     0.00109        5.23       0.179
  WS02004406           JUNCTION      0.00   543.07     0  03:15           0        5.22       0.402
  WS02004407           JUNCTION      0.00   539.34     0  03:15           0         5.2       0.020
  WS02004409           JUNCTION      0.00   538.98     0  03:15           0         5.2       0.050
  WS02004410           JUNCTION      0.00   538.47     0  03:16           0         5.2       0.087
  WS02004411           JUNCTION      0.00   538.18     0  03:16           0        5.19       0.108
  WS02004412           JUNCTION      0.00   538.02     0  03:16           0        5.19       0.144
  WS02004413           JUNCTION      0.00   537.61     0  03:16           0        5.18       0.267
  WS02006109           JUNCTION      1.23   560.65     0  01:53      0.0351        5.34       0.191
  WS02006110           JUNCTION      0.00   561.47     0  01:53           0        5.33       0.264
  WS02006111           JUNCTION      0.00   561.07     0  01:40           0        5.31       0.062
  WS02006112           JUNCTION      0.00   544.60     0  03:08           0         5.3       0.472
  WS02006113           JUNCTION      0.00   571.24     0  01:38           0        5.31       0.125
  WS02006115           JUNCTION      0.00   554.19     0  01:55           0        5.28       0.199
  WS02006116           JUNCTION      0.00   541.49     0  01:59           0        5.27       0.025
  WS02006228           JUNCTION      0.00   559.00     0  01:56           0        5.31       0.104
  WS02006229           JUNCTION      0.00   558.91     0  01:56           0        5.32       0.226
  WS02006230           JUNCTION     10.28   597.94     0  03:05       0.293        5.32       0.072
  WS02006231           JUNCTION      0.00   585.18     0  03:41           0        5.03       0.010
  WS02006232           JUNCTION      0.00   584.02     0  03:41           0        5.06       0.592
  WS02006234           JUNCTION      0.00   587.66     0  01:52           0        5.04      -0.360
  WS02006235           JUNCTION      0.00   579.87     0  01:52           0        5.15       0.494
  WS02006238           JUNCTION      0.00   424.39     0  03:17           0        3.97      -0.112
  WS02006239           JUNCTION      0.00   423.43     0  03:17           0        3.91      -0.026
  WS02006240           JUNCTION      0.00   421.42     0  03:17           0        3.87       0.082
  WS02006242           JUNCTION      0.00   421.92     0  01:52           0        3.86       0.101
  WS02006243           JUNCTION      0.00   422.45     0  01:52           0        3.86       0.021
  WS02006245           JUNCTION      0.00   423.12     0  01:52           0        3.88       0.626
  WS02006247           JUNCTION      0.00   423.67     0  01:52           0        3.88       0.067
  WS02006248           JUNCTION      0.00   429.11     0  01:50           0         3.9       0.188
  WS02006249           JUNCTION      0.00   472.57     0  01:30           0        4.17       0.468
  WS02006251           JUNCTION      0.08   405.12     0  01:52     0.00219        4.17      -0.007
  WS02006252           JUNCTION      0.00   400.00     0  00:00           0        4.16      -0.066
  WS02006256           JUNCTION      0.00   334.20     0  02:28           0        1.84      -3.502
  WSF200               JUNCTION      0.00   537.71     0  03:17           0        5.16       0.007
  YS02001580           JUNCTION      0.00    62.26     0  02:02           0     0.00407       0.865
  YS02001583           JUNCTION      0.00    99.39     0  02:03           0      0.0159      -2.269
  YS02001586           JUNCTION   1139.95  1139.98     0  02:26        2.39         2.4       0.040
  YS02001590           JUNCTION      0.00   317.91     0  02:11           0         1.6      -0.034
  YS02001593           JUNCTION      0.00   317.93     0  02:16           0         1.6       0.013
  YS02001596           JUNCTION      0.00   318.04     0  02:38           0         1.6       0.001
  YS02001600           JUNCTION      0.00   318.33     0  02:28           0         1.6       0.024
  YS02001601           JUNCTION   1925.68  2243.12     0  02:25        3.24        4.84       0.021
  YS02001602           JUNCTION      0.00   505.31     0  02:54           0        2.65       0.018
  YS02001605           JUNCTION      0.00   505.11     0  02:54           0        2.52       0.025
  YS02001607           JUNCTION      0.00   505.42     0  02:54           0        2.52       0.082
  YS02001610           JUNCTION      0.00   951.76     0  02:27           0        3.07       0.081
  YS02001613           JUNCTION      0.00   615.31     0  02:27           0        2.47       0.064
  YS02001616           JUNCTION      0.00   615.46     0  02:27           0        2.47       0.021
  YS02001619           JUNCTION   2017.05  2017.05     0  02:26        3.84        5.75       0.003
  YS02001622           JUNCTION      0.00  1053.94     0  02:28           0         5.1       0.004
  YS02001625           JUNCTION      0.00  1505.13     0  02:29           0        5.49       0.162
  YS02001629           JUNCTION      0.00   953.32     0  02:46           0        4.27       0.027
  YS02001633           JUNCTION   1448.52  1448.52     0  02:25        2.38        6.17       0.059
  YS02001641           JUNCTION      0.00  1350.04     0  02:10           0        5.69       0.052
  YS02001644           JUNCTION   1291.49  1984.71     0  02:25        2.07        7.76       0.045
  YS02001647           JUNCTION      0.00  1726.11     0  02:10           0        6.88       0.008
  YS02001649           JUNCTION      0.00  1985.50     0  02:11           0        8.78       0.008
  YS02001652           JUNCTION      0.00  1272.52     0  02:25           0        1.91      -0.045
  YS02001655           JUNCTION      0.15  1272.57     0  02:25     0.00439        1.91       0.023
  YS02001658           JUNCTION      0.00  1272.57     0  02:25           0         1.9      -0.006
  YS02001661           JUNCTION      0.00  1272.14     0  02:25           0         1.9       0.014
  YS02001664           JUNCTION   1265.33  1265.33     0  02:25         1.9         1.9      -0.005
  YS02001745           JUNCTION    783.18   783.18     0  02:25        1.14        1.14       0.080
  YS02001748           JUNCTION      0.04   786.02     0  02:25     0.00128        1.14      -0.136
  YS02001751           JUNCTION      0.01   786.04     0  02:25    0.000313        1.14       0.045
  YS02001754           JUNCTION      0.26   786.55     0  02:25     0.00741        1.15      -0.090
  YS02001757           JUNCTION      0.00  3628.15     0  02:24           0        13.5       0.041
  YS02001759           JUNCTION   1090.34  1525.82     0  02:25        1.58        3.54       0.001
  YS02001762           JUNCTION      0.00   825.60     0  02:31           0        1.97       0.009
  YS02001765           JUNCTION      0.00   825.18     0  02:31           0        1.97       0.010
  YS02001767           JUNCTION      0.54   824.97     0  02:31      0.0152        1.97       0.007
  YS02001770           JUNCTION   1553.16  1553.16     0  02:25         2.4        2.44      -0.003
  YS02001774           JUNCTION      0.00   850.58     0  02:26           0       0.466       0.260
  YS02001779           JUNCTION      0.01   850.68     0  02:26    0.000142       0.424      -0.009
  YS02001783           JUNCTION      0.00  1172.10     0  02:24           0        4.87       0.007
  YS02001784           JUNCTION      1.06  1172.64     0  02:24      0.0302         4.9       0.011
  YS02001786           JUNCTION      0.06  1172.84     0  02:24      0.0016         4.9       0.015
  YS02001788           JUNCTION      0.07  1174.08     0  02:24     0.00202         4.9       0.006
  YS02001790           JUNCTION      0.15  1186.34     0  02:24     0.00442        4.91       0.014
  YS02001791           JUNCTION      0.00  1291.39     0  02:25           0        4.91      -0.019
  YS02001793           JUNCTION      0.00  1256.09     0  02:21           0        4.91      -0.034
  YS02001882           JUNCTION      0.00    28.13     0  02:07           0      0.0131       5.865
  YS02001884           JUNCTION      0.00    34.73     0  02:06           0      0.0492       5.343
  YS02001887           JUNCTION   1153.65  1153.68     0  02:25        1.64        1.67       0.267
  YS02001890           JUNCTION      0.00  1153.85     0  02:25           0        1.63       0.321
  YS02001895           JUNCTION      0.00   518.80     0  02:26           0        1.36       0.125
  YS02001898           JUNCTION      0.00   518.56     0  02:26           0        1.36       0.023
  YS02001901           JUNCTION      0.00   518.23     0  02:26           0        1.37       0.242
  YS02001904           JUNCTION      0.00   518.27     0  02:26           0        1.37       0.215
  YS02001907           JUNCTION      0.00  2926.92     0  02:25           0        5.02       0.363
  YS02001910           JUNCTION      0.00  1992.84     0  02:26           0        3.55       0.204
  YS02001915           JUNCTION   1392.40  2080.83     0  02:25        2.28        3.58       0.045
  YS02001918           JUNCTION      0.00   689.38     0  02:25           0        1.31       0.027
  YS02001920           JUNCTION      2.87   689.49     0  02:25      0.0818         1.3       0.076
  YS02001923           JUNCTION      0.04   685.38     0  02:25     0.00107        1.21      -0.003
  YS02001926           JUNCTION      0.05   684.83     0  02:25     0.00149         1.2      -0.001
  YS02001929           JUNCTION    683.49   683.49     0  02:26         1.2         1.2      -0.019
  YS02006553           JUNCTION      0.00   819.20     0  02:42           0        2.71       0.440
  YS02006556           JUNCTION      0.00   820.43     0  02:42           0        2.72       0.308
  YS02006558           JUNCTION   1589.38  1589.38     0  02:25         2.4           5       0.069
  YS02006561           JUNCTION      0.00  1171.84     0  02:24           0        4.87      -0.000
  YS02163301           JUNCTION      0.00   954.87     0  02:45           0        4.27       0.040
  YS02163601           JUNCTION      0.11  1351.66     0  02:10     0.00313        5.69       0.089
  YS02164001           JUNCTION      0.00  1351.65     0  02:10           0        5.69       0.046
  CC-1                 OUTFALL       0.00   683.00     0  00:00           0        5.78       0.000
  CC-2                 OUTFALL       0.00   683.00     0  00:00           0        5.78       0.000
  JK-1                 OUTFALL       0.00  1000.00     0  00:00           0        1.64       0.000
  JK-2                 OUTFALL       0.00  1000.00     0  00:00           0        1.64       0.000
  WSC                  OUTFALL       0.00   555.34     0  03:19           0        5.67       0.000
  CC-storage           STORAGE       0.00  3627.42     0  02:24           0        15.7      -0.331
  JK-storage           STORAGE       0.00  1415.90     0  02:21           0        5.06      -1.368
  
  
  **********************
  Node Surcharge Summary
  **********************
  
  Surcharging occurs when water rises above the top of the highest conduit.
  ---------------------------------------------------------------------
                                               Max. Height   Min. Depth
                                   Hours       Above Crown    Below Rim
  Node                 Type      Surcharged         Meters       Meters
  ---------------------------------------------------------------------
  WS02004404           JUNCTION        0.01          0.073        2.707
  WS02006109           JUNCTION        2.29          0.462        1.358
  WS02006110           JUNCTION        0.52          0.476        1.374
  WS02006112           JUNCTION        1.59          0.117        1.563
  WS02006228           JUNCTION        2.27          0.454        1.746
  WS02006229           JUNCTION        2.30          0.531        1.919
  WS02006230           JUNCTION        0.58          0.484        1.086
  WS02006231           JUNCTION        1.23          1.530        0.000
  WS02006232           JUNCTION        2.39          1.480        0.000
  WS02006234           JUNCTION        1.74          1.240        0.000
  WS02006235           JUNCTION        2.01          1.290        0.000
  WS02006238           JUNCTION        2.21          1.430        0.000
  WS02006239           JUNCTION        2.22          1.290        0.000
  WS02006240           JUNCTION        2.29          1.390        0.000
  WS02006242           JUNCTION        2.40          0.820        0.000
  WS02006243           JUNCTION        2.29          0.770        0.000
  WS02006245           JUNCTION        2.28          0.850        0.000
  WS02006247           JUNCTION        2.32          0.760        0.000
  WS02006248           JUNCTION        2.27          0.380        0.000
  WS02006249           JUNCTION        2.30          0.390        0.000
  WS02006251           JUNCTION        1.64          0.350        0.830
  WS02006252           JUNCTION        2.89          1.100        0.000
  WS02006256           JUNCTION        5.90          2.050        0.000
  YS02001580           JUNCTION        0.82          0.390        0.060
  YS02001583           JUNCTION        0.83          0.352        0.148
  YS02001586           JUNCTION        0.94          0.510        0.000
  YS02001590           JUNCTION        1.03          0.750        0.000
  YS02001593           JUNCTION        1.02          0.716        0.124
  YS02001596           JUNCTION        1.14          0.996        0.074
  YS02001600           JUNCTION        1.30          1.190        0.000
  YS02001601           JUNCTION        1.67          1.440        0.000
  YS02001602           JUNCTION        1.55          1.270        0.000
  YS02001605           JUNCTION        1.49          1.180        0.000
  YS02001607           JUNCTION        0.96          0.646        0.034
  YS02001610           JUNCTION        0.99          0.680        0.000
  YS02001613           JUNCTION        0.95          0.700        0.000
  YS02001616           JUNCTION        0.90          0.610        0.000
  YS02001619           JUNCTION        0.88          0.610        0.000
  YS02001622           JUNCTION        0.87          0.585        0.035
  YS02001625           JUNCTION        1.08          0.780        0.000
  YS02001629           JUNCTION        0.76          0.470        0.000
  YS02001633           JUNCTION        1.09          1.028        0.032
  YS02001641           JUNCTION        0.97          0.954        0.146
  YS02001644           JUNCTION        0.90          0.920        0.000
  YS02001647           JUNCTION        0.61          0.766        0.134
  YS02001649           JUNCTION        0.67          1.001        0.049
  YS02001652           JUNCTION        0.50          0.853        0.277
  YS02001655           JUNCTION        0.39          0.915        0.285
  YS02001658           JUNCTION        0.29          0.885        0.415
  YS02001661           JUNCTION        0.12          0.251        1.139
  YS02001748           JUNCTION        0.19          0.256        0.934
  YS02001751           JUNCTION        0.32          0.501        0.699
  YS02001754           JUNCTION        0.40          0.688        0.462
  YS02001757           JUNCTION        0.67          1.056        0.154
  YS02001759           JUNCTION        0.59          1.088        0.122
  YS02001762           JUNCTION        0.57          1.051        0.099
  YS02001765           JUNCTION        0.53          1.005        0.095
  YS02001767           JUNCTION        0.51          0.974        0.056
  YS02001770           JUNCTION        0.50          0.920        0.000
  YS02001774           JUNCTION        0.56          1.003        0.047
  YS02001779           JUNCTION        0.42          0.680        0.000
  YS02001783           JUNCTION        0.72          0.454        1.146
  YS02001784           JUNCTION        0.69          0.334        1.156
  YS02001786           JUNCTION        0.56          0.089        1.341
  YS02001882           JUNCTION        0.65          0.711        0.119
  YS02001884           JUNCTION        0.66          0.735        0.135
  YS02001887           JUNCTION        0.70          0.828        0.122
  YS02001890           JUNCTION        0.72          0.760        0.000
  YS02001895           JUNCTION        0.64          0.567        0.183
  YS02001898           JUNCTION        0.63          0.544        0.196
  YS02001901           JUNCTION        0.69          0.708        0.162
  YS02001904           JUNCTION        0.68          0.640        0.210
  YS02001907           JUNCTION        1.02          0.950        0.000
  YS02001910           JUNCTION        0.75          1.014        0.086
  YS02001915           JUNCTION        0.65          1.000        0.000
  YS02001918           JUNCTION        0.55          0.719        0.091
  YS02001920           JUNCTION        0.57          0.820        0.320
  YS02001923           JUNCTION        0.22          0.374        0.446
  YS02001926           JUNCTION        0.25          0.430        0.470
  YS02001929           JUNCTION        0.10          0.209        0.571
  YS02006553           JUNCTION        1.04          0.987        0.203
  YS02006556           JUNCTION        0.87          0.956        0.394
  YS02006558           JUNCTION        0.85          0.957        0.443
  YS02006561           JUNCTION        0.52          0.129        1.021
  YS02163301           JUNCTION        1.07          0.928        0.102
  YS02163601           JUNCTION        1.12          1.047        0.033
  YS02164001           JUNCTION        0.99          0.954        0.146
  
  
  *********************
  Node Flooding Summary
  *********************
  
  Flooding refers to all water that overflows a node, whether it ponds or not.
  --------------------------------------------------------------------------
                                                             Total   Maximum
                                 Maximum   Time of Max       Flood    Ponded
                        Hours       Rate    Occurrence      Volume     Depth
  Node                 Flooded       LPS   days hr:min    10^6 ltr    Meters
  --------------------------------------------------------------------------
  WS02006231              0.01     71.03      0  01:57       0.000     0.000
  WS02006232              0.01     37.03      0  02:26       0.000     0.000
  WS02006234              0.01    160.58      0  02:55       0.001     0.000
  WS02006235              0.01     48.90      0  02:26       0.000     0.000
  WS02006238              0.01     28.78      0  02:26       0.000     0.000
  WS02006239              0.01      7.06      0  02:47       0.000     0.000
  WS02006240              0.01     11.91      0  02:42       0.000     0.000
  WS02006242              0.03     38.94      0  01:51       0.001     0.000
  WS02006243              0.01      5.56      0  02:10       0.000     0.000
  WS02006245              0.01      3.64      0  02:26       0.000     0.000
  WS02006247              0.01     79.90      0  01:50       0.000     0.000
  WS02006248              0.24     33.23      0  02:42       0.013     0.000
  WS02006249              1.44     84.55      0  01:52       0.242     0.000
  WS02006252              0.01    266.98      0  01:49       0.000     0.000
  WS02006256              1.71    319.85      0  02:28       0.685     0.000
  YS02001586              0.68    822.45      0  02:26       0.792     0.000
  YS02001590              0.01      0.12      0  02:28       0.000     0.000
  YS02001600              0.01      1.49      0  02:03       0.000     0.000
  YS02001601              0.85   1845.26      0  02:25       2.186     0.000
  YS02001602              0.64     61.99      0  02:29       0.133     0.000
  YS02001605              0.01      0.21      0  02:24       0.000     0.000
  YS02001610              0.58    951.42      0  02:27       1.156     0.000
  YS02001613              0.01      0.65      0  02:28       0.000     0.000
  YS02001616              0.09      1.45      0  02:29       0.000     0.000
  YS02001619              0.13    353.68      0  02:26       0.093     0.000
  YS02001625              0.51   1505.01      0  02:29       1.684     0.000
  YS02001629              0.23    308.44      0  02:25       0.100     0.000
  YS02001644              0.28   1932.46      0  02:25       0.868     0.000
  YS02001770              0.07    276.19      0  02:25       0.036     0.000
  YS02001779              0.24    850.53      0  02:26       0.407     0.000
  YS02001890              0.27    637.08      0  02:25       0.260     0.000
  YS02001907              0.49   2926.76      0  02:25       2.394     0.000
  YS02001915              0.05     90.61      0  02:25       0.008     0.000
  
  
  **********************
  Storage Volume Summary
  **********************
  
  ------------------------------------------------------------------------------------------------
                         Average    Avg   Evap  Exfil     Maximum    Max    Time of Max    Maximum
                          Volume   Pcnt   Pcnt   Pcnt      Volume   Pcnt     Occurrence    Outflow
  Storage Unit           1000 m³   Full   Loss   Loss     1000 m³   Full    days hr:min        LPS
  ------------------------------------------------------------------------------------------------
  CC-storage               0.939   14.6    0.0    0.0       3.425   53.4       0  02:56    1783.53
  JK-storage               0.007    2.4    0.0    0.0       0.150   51.6       0  00:00    2300.00
  
  
  ***********************
  Outfall Loading Summary
  ***********************
  
  -----------------------------------------------------------
                         Flow       Avg       Max       Total
                         Freq      Flow      Flow      Volume
  Outfall Node           Pcnt       LPS       LPS    10^6 ltr
  -----------------------------------------------------------
  CC-1                  50.96    683.00    683.00       5.783
  CC-2                  50.96    683.00    683.00       5.783
  JK-1                  10.51    999.53   1000.00       1.644
  JK-2                  10.51    999.53   1000.00       1.644
  WSC                   99.94    287.86    555.34       5.675
  -----------------------------------------------------------
  System                44.58   3652.93   3899.51      20.529
  
  
  ********************
  Link Flow Summary
  ********************
  
  -----------------------------------------------------------------------------
                                 Maximum  Time of Max   Maximum    Max/    Max/
                                  |Flow|   Occurrence   |Veloc|    Full    Full
  Link                 Type          LPS  days hr:min     m/sec    Flow   Depth
  -----------------------------------------------------------------------------
  1                    CONDUIT    555.34     0  03:19      2.83    0.19    0.30
  WS02003060WS02003069 CONDUIT    554.57     0  03:17      1.64    0.22    0.34
  WS02003066WSF200     CONDUIT    537.71     0  03:17      2.85    0.09    0.22
  WS02003067WS02003066 CONDUIT    537.66     0  03:17      1.21    0.17    0.42
  WS02003069WS02003072 CONDUIT    554.54     0  03:18      1.37    0.27    0.39
  WS02003072WS02003073 CONDUIT    554.12     0  03:19      1.44    1.20    0.37
  WS02004401WS02004402 CONDUIT    540.48     0  03:17      1.22    0.65    0.89
  WS02004402WS02004403 CONDUIT    539.76     0  03:14      1.24    0.78    0.91
  WS02004403WS02004404 CONDUIT    560.21     0  03:15      1.24    0.40    0.96
  WS02004404WS02004405 CONDUIT    610.61     0  01:58      1.45    5.98    0.98
  WS02004405WS02004406 CONDUIT    543.07     0  03:15      1.46    1.07    0.96
  WS02004406WS02004407 CONDUIT    539.34     0  03:15      1.04    0.24    0.63
  WS02004407WS02004409 CONDUIT    538.98     0  03:15      1.59    0.19    0.48
  WS02004409WS02004410 CONDUIT    538.47     0  03:16      1.06    0.70    0.67
  WS02004410WS02004411 CONDUIT    538.18     0  03:16      1.12    0.74    0.69
  WS02004411WS02004412 CONDUIT    538.02     0  03:16      1.22    0.76    0.69
  WS02004412WS02004413 CONDUIT    537.61     0  03:16      1.22    0.36    0.78
  WS02004413WS02003067 CONDUIT    537.55     0  03:17      1.11    0.23    0.59
  WS02006109WS02006110 CONDUIT    561.47     0  01:53      1.12    1.08    1.00
  WS02006110WS02006113 CONDUIT    571.24     0  01:38      1.38    0.52    0.79
  WS02006111WS02006112 CONDUIT    544.60     0  03:08      1.95    0.26    0.67
  WS02006112WS02006115 CONDUIT    554.19     0  01:55      0.90    0.33    0.88
  WS02006113WS02006111 CONDUIT    561.07     0  01:40      2.48    0.67    0.46
  WS02006115WS02006116 CONDUIT    541.49     0  01:59      1.29    0.69    0.78
  WS02006116WS02004401 CONDUIT    538.61     0  03:17      1.21    0.74    0.86
  WS02006228WS02006109 CONDUIT    559.42     0  01:53      1.11    2.44    1.00
  WS02006229WS02006228 CONDUIT    559.00     0  01:56      1.12    1.85    1.00
  WS02006230WS02006229 CONDUIT    558.91     0  01:56      1.45   12.44    1.00
  WS02006231WS02006230 CONDUIT    587.66     0  03:05      1.60    8.91    1.00
  WS02006232WS02006231 CONDUIT    585.18     0  03:41      1.53    1.23    1.00
  WS02006234WS02006232 CONDUIT    584.02     0  03:41      1.52    1.18    1.00
  WS02006235WS02006234 CONDUIT    587.66     0  01:52      1.53    6.20    1.00
  WS02006238WS02006235 CONDUIT    424.59     0  03:17      1.45    0.95    1.00
  WS02006239WS02006238 CONDUIT    424.39     0  03:17      1.20    1.36    1.00
  WS02006240WS02006239 CONDUIT    423.43     0  03:17      1.29    1.33    1.00
  WS02006242WS02006240 CONDUIT    421.42     0  03:17      1.17    1.67    1.00
  WS02006243WS02006242 CONDUIT    421.92     0  01:52      1.43    0.90    1.00
  WS02006245WS02006243 CONDUIT    422.45     0  01:52      1.44    1.25    1.00
  WS02006247WS02006245 CONDUIT    423.12     0  01:52      1.43    3.36    1.00
  WS02006248WS02006247 CONDUIT    423.67     0  01:52      1.45    0.92    1.00
  WS02006249WS02006248 CONDUIT    429.11     0  01:50      1.39    2.35    1.00
  WS02006251WS02006249 CONDUIT    472.57     0  01:30      1.99    1.36    1.00
  WS02006252WS02006251 CONDUIT    405.04     0  01:52     27.97    1.49    1.00
  WS02006256WS02006235 CONDUIT    288.91     0  00:00      4.23    3.06    1.00
  WSF200WS02003060     CONDUIT    537.95     0  03:17      2.06    0.12    0.28
  YS02001580YS02001583 CONDUIT     62.26     0  02:02      0.47    0.24    1.00
  YS02001583YS02001586 CONDUIT     99.39     0  02:03      0.41    0.15    1.00
  YS02001586YS02001590 CONDUIT    317.91     0  02:11      1.26    0.56    1.00
  YS02001590YS02001593 CONDUIT    317.93     0  02:16      1.13    2.00    1.00
  YS02001593YS02001596 CONDUIT    318.04     0  02:38      1.81    0.50    1.00
  YS02001596YS02001600 CONDUIT    318.33     0  02:28      1.30    0.62    1.00
  YS02001600YS02001601 CONDUIT    318.59     0  02:28      1.13    0.55    1.00
  YS02001601YS02001602 CONDUIT    505.31     0  02:54      1.79    1.83    1.00
  YS02001602YS02001605 CONDUIT    505.11     0  02:54      1.79   10.69    1.00
  YS02001605YS02001607 CONDUIT    505.42     0  02:54      1.79    2.77    1.00
  YS02001607YS02001610 CONDUIT    506.14     0  02:54      0.64    0.48    1.00
  YS02001610YS02001613 CONDUIT    615.45     0  02:27      0.78    0.71    1.00
  YS02001613YS02001616 CONDUIT    615.31     0  02:27      0.78    0.53    1.00
  YS02001616YS02001619 CONDUIT    615.46     0  02:27      0.78    1.07    1.00
  YS02001619YS02001622 CONDUIT   1053.94     0  02:28      1.34    1.55    1.00
  YS02001622YS02001625 CONDUIT   1053.56     0  02:26      1.34    0.56    1.00
  YS02001625YS02001629 CONDUIT    953.32     0  02:46      1.21    0.45    1.00
  YS02001629YS02163301 CONDUIT    954.87     0  02:45      1.22    1.18    1.00
  YS02001633YS02163601 CONDUIT   1351.55     0  02:10      1.72    1.42    1.00
  YS02001641YS02001644 CONDUIT   1350.05     0  02:10      1.72    4.36    1.00
  YS02001644YS02001647 CONDUIT   1726.11     0  02:10      2.20    1.01    1.00
  YS02001647YS02001649 CONDUIT   1740.32     0  02:10      2.25    0.92    1.00
  YS02001649YS02001757 CONDUIT   1985.12     0  02:11      2.53    1.20    1.00
  YS02001652YS02001649 CONDUIT   1272.64     0  02:25      1.62    0.63    1.00
  YS02001655YS02001652 CONDUIT   1272.52     0  02:25      1.62    0.62    1.00
  YS02001658YS02001655 CONDUIT   1272.41     0  02:25      1.78    0.54    1.00
  YS02001661YS02001658 CONDUIT   1272.57     0  02:25      2.24    0.50    1.00
  YS02001664YS02001661 CONDUIT   1272.14     0  02:25      2.21    0.40    0.92
  YS02001745YS02001748 CONDUIT    785.97     0  02:25      2.08    0.30    0.96
  YS02001748YS02001751 CONDUIT    786.03     0  02:25      1.61    0.40    1.00
  YS02001751YS02001754 CONDUIT    786.29     0  02:25      1.31    0.38    1.00
  YS02001754YS02001757 CONDUIT    786.21     0  02:25      1.00    0.32    1.00
  YS02001757CaochengTiaoxuchi CONDUIT   3627.42     0  02:24      6.64    1.57    1.00
  YS02001759YS02001757 CONDUIT   1525.71     0  02:25      1.94    1.08    1.00
  YS02001762YS02001759 CONDUIT    826.11     0  02:31      1.05    0.95    1.00
  YS02001765YS02001762 CONDUIT    825.60     0  02:31      1.05    0.77    1.00
  YS02001767YS02001765 CONDUIT    825.18     0  02:31      1.05    1.04    1.00
  YS02001770YS02001767 CONDUIT    824.44     0  02:31      1.05    3.27    1.00
  YS02001774YS02001770 CONDUIT    850.58     0  02:26      1.08    0.54    1.00
  YS02001779YS02001774 CONDUIT    850.68     0  02:26      1.08    0.43    1.00
  YS02001783YS02001784 CONDUIT   1171.58     0  02:24      2.33    1.62    1.00
  YS02001784YS02001785 CONDUIT   1172.79     0  02:24      2.33    2.73    1.00
  YS02001786YS02001788 CONDUIT   1174.01     0  02:24      2.50    2.26    0.89
  YS02001788YS02001790 CONDUIT   1186.19     0  02:24      2.74    0.87    0.84
  YS02001790YS02001791 CONDUIT   1291.39     0  02:25      3.43    1.41    0.71
  YS02001791YS02001793 CONDUIT   1256.09     0  02:21      6.77    0.54    0.44
  YS02001793JiankangQianchi CONDUIT   1415.90     0  02:21     21.94    0.11    0.50
  YS02001882YS02001884 CONDUIT     28.13     0  02:07      0.15    0.03    1.00
  YS02001884YS02001887 CONDUIT     36.42     0  02:54      0.11    0.05    1.00
  YS02001887YS02001890 CONDUIT   1153.85     0  02:25      1.47    1.97    1.00
  YS02001890YS02001895 CONDUIT    518.80     0  02:26      0.66    0.24    1.00
  YS02001895YS02001898 CONDUIT    518.56     0  02:26      0.66    0.90    1.00
  YS02001898YS02001901 CONDUIT    518.23     0  02:26      0.66    0.33    1.00
  YS02001901YS02001904 CONDUIT    518.27     0  02:26      0.66    0.80    1.00
  YS02001904YS02001907 CONDUIT    519.30     0  02:26      0.66    0.18    1.00
  YS02001907YS02006553 CONDUIT    819.20     0  02:42      0.91    0.96    1.00
  YS02001910YS02001907 CONDUIT   1992.80     0  02:26      2.54    1.12    1.00
  YS02001915YS02001910 CONDUIT   1992.84     0  02:26      2.54    0.99    1.00
  YS02001918YS02001915 CONDUIT    689.70     0  02:25      0.88    0.38    1.00
  YS02001920YS02001918 CONDUIT    689.38     0  02:25      0.88    0.67    1.00
  YS02001923YS02001920 CONDUIT    686.62     0  02:25      0.87    0.31    1.00
  YS02001926YS02001923 CONDUIT    685.34     0  02:25      0.93    0.98    1.00
  YS02001929YS02001926 CONDUIT    684.78     0  02:25      1.06    0.33    1.00
  YS02006553YS02006556 CONDUIT    820.43     0  02:42      1.04    0.70    1.00
  YS02006556YS02006558 CONDUIT    822.12     0  02:42      1.05    0.65    1.00
  YS02006558YS02006561 CONDUIT   1171.84     0  02:24      4.14    2.59    1.00
  YS02006561YS02001783 CONDUIT   1172.10     0  02:24      2.33    0.61    1.00
  YS02163301YS02001633 CONDUIT    955.35     0  02:45      1.22    0.90    1.00
  YS02163601YS02164001 CONDUIT   1351.65     0  02:10      1.72    1.20    1.00
  YS02164001YS02001641 CONDUIT   1350.04     0  02:10      1.72    1.84    1.00
  CC-R1                PUMP       683.00     0  00:00              1.00
  CC-R2                PUMP       683.00     0  00:00              1.00
  CC-S1                PUMP       200.00     0  00:00              1.00
  CC-S2                PUMP       200.00     0  00:00              1.00
  JK-R1                PUMP      1000.00     0  00:00              1.00
  JK-R2                PUMP      1000.00     0  00:00              1.00
  JK-S                 PUMP       300.00     0  00:00              1.00
  
  
  ***************************
  Flow Classification Summary
  ***************************
  
  -------------------------------------------------------------------------------------
                      Adjusted    ---------- Fraction of Time in Flow Class ---------- 
                       /Actual         Up    Down  Sub   Sup   Up    Down  Norm  Inlet 
  Conduit               Length    Dry  Dry   Dry   Crit  Crit  Crit  Crit  Ltd   Ctrl  
  -------------------------------------------------------------------------------------
  1                       1.00   0.00  0.00  0.00  0.00  1.00  0.00  0.00  0.36  0.00
  WS02003060WS02003069    1.00   0.00  0.00  0.00  0.97  0.03  0.00  0.00  0.68  0.00
  WS02003066WSF200        1.00   0.05  0.00  0.00  0.00  0.95  0.00  0.00  0.82  0.00
  WS02003067WS02003066    1.00   0.05  0.00  0.00  0.95  0.00  0.00  0.00  0.00  0.00
  WS02003069WS02003072    1.00   0.00  0.00  0.00  0.99  0.01  0.00  0.00  0.70  0.00
  WS02003072WS02003073    1.00   0.00  0.00  0.00  0.00  0.00  0.00  1.00  0.00  0.00
  WS02004401WS02004402    1.00   0.02  0.00  0.00  0.98  0.00  0.00  0.00  0.00  0.00
  WS02004402WS02004403    1.00   0.02  0.00  0.00  0.98  0.00  0.00  0.00  0.00  0.00
  WS02004403WS02004404    1.00   0.00  0.03  0.00  0.97  0.00  0.00  0.00  0.00  0.00
  WS02004404WS02004405    1.00   0.00  0.00  0.00  1.00  0.00  0.00  0.00  0.01  0.00
  WS02004405WS02004406    1.00   0.00  0.00  0.00  1.00  0.00  0.00  0.00  0.00  0.00
  WS02004406WS02004407    1.00   0.00  0.03  0.00  0.97  0.00  0.00  0.00  0.00  0.00
  WS02004407WS02004409    1.00   0.03  0.00  0.00  0.95  0.02  0.00  0.00  0.95  0.00
  WS02004409WS02004410    1.00   0.03  0.00  0.00  0.96  0.00  0.00  0.00  0.00  0.00
  WS02004410WS02004411    1.00   0.04  0.00  0.00  0.96  0.00  0.00  0.00  0.00  0.00
  WS02004411WS02004412    1.00   0.04  0.00  0.00  0.96  0.00  0.00  0.00  0.00  0.00
  WS02004412WS02004413    1.00   0.04  0.00  0.00  0.96  0.00  0.00  0.00  0.00  0.00
  WS02004413WS02003067    1.00   0.04  0.01  0.00  0.00  0.00  0.95  0.00  0.00  0.00
  WS02006109WS02006110    1.00   0.00  0.01  0.00  0.98  0.00  0.01  0.00  0.00  0.00
  WS02006110WS02006113    1.00   0.01  0.01  0.00  0.98  0.00  0.00  0.00  0.00  0.00
  WS02006111WS02006112    1.00   0.02  0.00  0.00  0.98  0.00  0.00  0.00  0.98  0.00
  WS02006112WS02006115    1.00   0.02  0.00  0.00  0.97  0.00  0.00  0.00  0.00  0.00
  WS02006113WS02006111    1.00   0.02  0.00  0.00  0.00  0.98  0.00  0.00  0.16  0.00
  WS02006115WS02006116    1.00   0.02  0.00  0.00  0.97  0.00  0.00  0.01  0.00  0.00
  WS02006116WS02004401    1.00   0.02  0.00  0.00  0.98  0.00  0.00  0.00  0.00  0.00
  WS02006228WS02006109    1.00   0.00  0.00  0.00  1.00  0.00  0.00  0.00  0.00  0.00
  WS02006229WS02006228    1.00   0.00  0.00  0.00  0.99  0.00  0.00  0.01  0.00  0.00
  WS02006230WS02006229    1.00   0.00  0.00  0.00  0.99  0.00  0.00  0.01  0.02  0.00
  WS02006231WS02006230    1.00   0.00  0.00  0.00  0.31  0.00  0.69  0.00  0.00  0.00
  WS02006232WS02006231    1.00   0.00  0.00  0.00  0.98  0.00  0.02  0.00  0.00  0.00
  WS02006234WS02006232    1.00   0.00  0.00  0.00  1.00  0.00  0.00  0.00  0.05  0.00
  WS02006235WS02006234    1.00   0.00  0.00  0.00  0.92  0.00  0.08  0.00  0.00  0.00
  WS02006238WS02006235    1.00   0.00  0.00  0.00  0.99  0.00  0.00  0.00  0.00  0.00
  WS02006239WS02006238    1.00   0.00  0.00  0.00  1.00  0.00  0.00  0.00  0.23  0.00
  WS02006240WS02006239    1.00   0.00  0.00  0.00  0.66  0.00  0.00  0.33  0.04  0.00
  WS02006242WS02006240    1.00   0.00  0.00  0.00  0.99  0.00  0.01  0.00  0.02  0.00
  WS02006243WS02006242    1.00   0.00  0.00  0.00  0.98  0.00  0.00  0.01  0.56  0.00
  WS02006245WS02006243    1.00   0.00  0.00  0.00  0.61  0.00  0.00  0.39  0.01  0.00
  WS02006247WS02006245    1.00   0.00  0.00  0.00  0.98  0.00  0.00  0.01  0.00  0.00
  WS02006248WS02006247    1.00   0.00  0.00  0.00  0.99  0.00  0.00  0.01  0.21  0.00
  WS02006249WS02006248    1.00   0.00  0.00  0.00  0.43  0.00  0.57  0.00  0.00  0.00
  WS02006251WS02006249    1.00   0.00  0.00  0.00  0.99  0.01  0.00  0.00  0.58  0.00
  WS02006252WS02006251    1.00   0.00  0.63  0.00  0.21  0.00  0.16  0.00  0.00  0.00
  WS02006256WS02006235    1.00   0.00  0.00  0.00  0.98  0.02  0.00  0.00  0.00  0.00
  WSF200WS02003060        1.00   0.00  0.05  0.00  0.37  0.58  0.00  0.00  0.62  0.00
  YS02001580YS02001583    1.00   0.25  0.52  0.00  0.22  0.00  0.00  0.00  0.62  0.00
  YS02001583YS02001586    1.00   0.39  0.33  0.00  0.28  0.00  0.00  0.00  0.62  0.00
  YS02001586YS02001590    1.00   0.13  0.00  0.00  0.48  0.04  0.00  0.36  0.38  0.00
  YS02001590YS02001593    1.00   0.13  0.01  0.00  0.15  0.00  0.72  0.00  0.00  0.00
  YS02001593YS02001596    1.00   0.13  0.00  0.00  0.16  0.01  0.00  0.69  0.02  0.00
  YS02001596YS02001600    1.00   0.14  0.00  0.00  0.23  0.01  0.00  0.62  0.05  0.00
  YS02001600YS02001601    1.00   0.13  0.01  0.00  0.86  0.00  0.00  0.00  0.57  0.00
  YS02001601YS02001602    1.00   0.13  0.01  0.00  0.87  0.00  0.00  0.00  0.00  0.00
  YS02001602YS02001605    1.00   0.13  0.00  0.00  0.86  0.00  0.00  0.00  0.00  0.00
  YS02001605YS02001607    1.00   0.14  0.00  0.00  0.86  0.00  0.00  0.00  0.00  0.00
  YS02001607YS02001610    1.00   0.13  0.01  0.00  0.86  0.00  0.00  0.00  0.01  0.00
  YS02001610YS02001613    1.00   0.13  0.00  0.00  0.87  0.00  0.00  0.00  0.00  0.00
  YS02001613YS02001616    1.00   0.13  0.00  0.00  0.87  0.00  0.00  0.00  0.00  0.00
  YS02001616YS02001619    1.00   0.13  0.00  0.00  0.87  0.00  0.00  0.00  0.00  0.00
  YS02001619YS02001622    1.00   0.13  0.00  0.00  0.87  0.00  0.00  0.00  0.25  0.00
  YS02001622YS02001625    1.00   0.13  0.00  0.00  0.87  0.00  0.00  0.00  0.03  0.00
  YS02001625YS02001629    1.00   0.13  0.04  0.00  0.19  0.00  0.64  0.00  0.00  0.00
  YS02001629YS02163301    1.00   0.15  0.01  0.00  0.84  0.00  0.00  0.00  0.00  0.00
  YS02001633YS02163601    1.00   0.00  0.01  0.00  0.99  0.00  0.00  0.00  0.15  0.00
  YS02001641YS02001644    1.00   0.00  0.01  0.00  0.99  0.00  0.00  0.00  0.00  0.00
  YS02001644YS02001647    1.00   0.00  0.17  0.00  0.83  0.00  0.00  0.00  0.00  0.00
  YS02001647YS02001649    1.00   0.00  0.16  0.00  0.52  0.31  0.00  0.00  0.54  0.00
  YS02001649YS02001757    1.00   0.00  0.00  0.00  0.80  0.20  0.00  0.00  0.56  0.00
  YS02001652YS02001649    1.00   0.00  0.00  0.00  0.97  0.03  0.00  0.00  0.71  0.00
  YS02001655YS02001652    1.00   0.00  0.00  0.00  0.21  0.01  0.00  0.77  0.09  0.00
  YS02001658YS02001655    1.00   0.00  0.14  0.00  0.63  0.23  0.00  0.00  0.70  0.00
  YS02001661YS02001658    1.00   0.14  0.00  0.00  0.47  0.40  0.00  0.00  0.70  0.00
  YS02001664YS02001661    1.00   0.13  0.00  0.00  0.72  0.15  0.00  0.00  0.84  0.00
  YS02001745YS02001748    1.00   0.00  0.00  0.00  0.07  0.01  0.00  0.92  0.03  0.00
  YS02001748YS02001751    1.00   0.00  0.00  0.00  0.79  0.21  0.00  0.00  0.76  0.00
  YS02001751YS02001754    1.00   0.00  0.00  0.00  0.15  0.01  0.00  0.84  0.04  0.00
  YS02001754YS02001757    1.00   0.00  0.00  0.00  1.00  0.00  0.00  0.00  0.82  0.00
  YS02001757CaochengTiaoxuchi    1.00   0.00  0.00  0.00  0.28  0.72  0.00  0.00  0.28  0.00
  YS02001759YS02001757    1.00   0.00  0.00  0.00  1.00  0.00  0.00  0.00  0.61  0.00
  YS02001762YS02001759    1.00   0.00  0.00  0.00  1.00  0.00  0.00  0.00  0.05  0.00
  YS02001765YS02001762    1.00   0.00  0.00  0.00  1.00  0.00  0.00  0.00  0.70  0.00
  YS02001767YS02001765    1.00   0.00  0.00  0.00  1.00  0.00  0.00  0.00  0.00  0.00
  YS02001770YS02001767    1.00   0.00  0.00  0.00  1.00  0.00  0.00  0.00  0.00  0.00
  YS02001774YS02001770    1.00   0.00  0.13  0.00  0.72  0.00  0.15  0.00  0.03  0.00
  YS02001779YS02001774    1.00   0.00  0.00  0.00  1.00  0.00  0.00  0.00  0.76  0.00
  YS02001783YS02001784    1.00   0.00  0.17  0.00  0.83  0.00  0.00  0.00  0.54  0.00
  YS02001784YS02001785    1.00   0.00  0.00  0.00  1.00  0.00  0.00  0.00  0.16  0.00
  YS02001786YS02001788    1.00   0.00  0.00  0.00  0.79  0.21  0.00  0.00  0.00  0.00
  YS02001788YS02001790    1.00   0.00  0.00  0.00  0.21  0.79  0.00  0.00  0.78  0.00
  YS02001790YS02001791    1.00   0.00  0.00  0.00  0.01  0.99  0.00  0.00  0.16  0.00
  YS02001791YS02001793    1.00   0.00  0.00  0.00  0.00  1.00  0.00  0.00  0.01  0.00
  YS02001793JiankangQianchi    1.00   0.00  0.00  0.00  0.42  0.58  0.00  0.00  0.83  0.00
  YS02001882YS02001884    1.00   0.15  0.01  0.00  0.85  0.00  0.00  0.00  0.00  0.00
  YS02001884YS02001887    1.00   0.06  0.05  0.00  0.89  0.00  0.00  0.00  0.00  0.00
  YS02001887YS02001890    1.00   0.00  0.00  0.00  0.97  0.00  0.03  0.00  0.00  0.00
  YS02001890YS02001895    1.00   0.00  0.16  0.00  0.84  0.00  0.00  0.00  0.00  0.00
  YS02001895YS02001898    1.00   0.16  0.00  0.00  0.82  0.00  0.02  0.00  0.00  0.00
  YS02001898YS02001901    1.00   0.16  0.00  0.00  0.84  0.00  0.00  0.00  0.01  0.00
  YS02001901YS02001904    1.00   0.16  0.00  0.00  0.84  0.00  0.00  0.00  0.00  0.00
  YS02001904YS02001907    1.00   0.00  0.16  0.00  0.84  0.00  0.00  0.00  0.00  0.00
  YS02001907YS02006553    1.00   0.00  0.02  0.00  0.98  0.00  0.00  0.00  0.00  0.00
  YS02001910YS02001907    1.00   0.00  0.00  0.00  0.97  0.00  0.00  0.03  0.12  0.00
  YS02001915YS02001910    1.00   0.00  0.00  0.00  0.97  0.03  0.00  0.00  0.14  0.00
  YS02001918YS02001915    1.00   0.00  0.01  0.00  0.98  0.02  0.00  0.00  0.71  0.00
  YS02001920YS02001918    1.00   0.00  0.01  0.00  0.99  0.00  0.00  0.00  0.00  0.00
  YS02001923YS02001920    1.00   0.00  0.00  0.00  1.00  0.00  0.00  0.00  0.90  0.00
  YS02001926YS02001923    1.00   0.00  0.07  0.00  0.08  0.00  0.84  0.00  0.00  0.00
  YS02001929YS02001926    1.00   0.00  0.13  0.00  0.87  0.00  0.00  0.00  0.80  0.00
  YS02006553YS02006556    1.00   0.01  0.00  0.00  0.99  0.00  0.00  0.00  0.03  0.00
  YS02006556YS02006558    1.00   0.00  0.00  0.00  1.00  0.00  0.00  0.00  0.00  0.00
  YS02006558YS02006561    1.00   0.17  0.00  0.00  0.08  0.75  0.00  0.00  0.18  0.00
  YS02006561YS02001783    1.00   0.17  0.00  0.00  0.12  0.71  0.00  0.00  0.66  0.00
  YS02163301YS02001633    1.00   0.00  0.15  0.00  0.85  0.00  0.00  0.00  0.00  0.00
  YS02163601YS02164001    1.00   0.00  0.08  0.00  0.92  0.00  0.00  0.00  0.00  0.00
  YS02164001YS02001641    1.00   0.01  0.08  0.00  0.92  0.00  0.00  0.00  0.05  0.00
  
  
  *************************
  Conduit Surcharge Summary
  *************************
  
  ----------------------------------------------------------------------------
                                                           Hours        Hours 
                         --------- Hours Full --------   Above Full   Capacity
  Conduit                Both Ends  Upstream  Dnstream   Normal Flow   Limited
  ----------------------------------------------------------------------------
  WS02003072WS02003073        0.01      0.01      0.01      1.97         0.01
  WS02004403WS02004404        0.01      0.01      0.01      0.01         0.01
  WS02004404WS02004405        0.01      0.01      0.01      3.36         0.01
  WS02004405WS02004406        0.01      0.01      0.01      1.18         0.01
  WS02006109WS02006110        0.51      0.51      2.37      0.78         0.01
  WS02006110WS02006113        0.01      0.01      2.34      0.01         0.01
  WS02006111WS02006112        0.01      0.01      2.43      0.01         0.01
  WS02006112WS02006115        0.01      0.01      1.59      0.01         0.01
  WS02006228WS02006109        2.29      2.37      2.29      2.74         2.29
  WS02006229WS02006228        2.27      2.30      2.27      2.58         2.25
  WS02006230WS02006229        2.44      2.49      2.44      3.82         2.44
  WS02006231WS02006230        0.57      0.57      1.51      3.42         0.01
  WS02006232WS02006231        1.22      1.22      2.39      1.32         0.01
  WS02006234WS02006232        2.03      2.03      2.39      1.25         1.10
  WS02006235WS02006234        1.67      1.73      2.00      3.26         0.14
  WS02006238WS02006235        2.08      2.08      2.39      0.01         0.08
  WS02006239WS02006238        2.21      2.38      2.21      2.52         1.80
  WS02006240WS02006239        2.21      2.31      2.22      2.54         1.75
  WS02006242WS02006240        2.29      2.29      2.44      2.72         0.04
  WS02006243WS02006242        2.31      2.31      2.40      0.01         0.34
  WS02006245WS02006243        2.29      2.30      2.29      2.21         1.40
  WS02006247WS02006245        2.28      2.34      2.28      2.89         2.11
  WS02006248WS02006247        2.29      2.29      2.32      0.01         0.40
  WS02006249WS02006248        2.27      2.27      2.30      2.87         0.01
  WS02006251WS02006249        2.29      2.31      2.30      2.81         2.00
  WS02006252WS02006251        2.89      2.89      2.89      2.89         0.01
  WS02006256WS02006235        3.08      3.34      5.69      1.72         0.02
  YS02001580YS02001583        0.82      0.82      0.86      0.01         0.01
  YS02001583YS02001586        0.82      0.82      0.94      0.01         0.01
  YS02001586YS02001590        0.95      0.95      1.03      0.01         0.01
  YS02001590YS02001593        1.02      1.02      1.05      1.04         0.01
  YS02001593YS02001596        1.04      1.04      1.14      0.01         0.01
  YS02001596YS02001600        1.20      1.20      1.30      0.01         0.01
  YS02001600YS02001601        1.37      1.37      1.67      0.01         0.01
  YS02001601YS02001602        1.55      1.55      1.71      1.33         0.01
  YS02001602YS02001605        1.49      1.49      1.55      2.54         0.01
  YS02001605YS02001607        1.44      1.49      1.44      1.63         1.44
  YS02001607YS02001610        0.96      0.96      0.99      0.01         0.01
  YS02001610YS02001613        0.95      0.95      0.99      0.01         0.01
  YS02001613YS02001616        0.90      0.90      0.95      0.01         0.01
  YS02001616YS02001619        0.88      0.88      0.90      0.12         0.07
  YS02001619YS02001622        0.87      0.88      0.87      1.07         0.86
  YS02001622YS02001625        0.87      0.87      1.08      0.01         0.01
  YS02001625YS02001629        0.76      0.76      1.08      0.01         0.01
  YS02001629YS02163301        1.06      1.06      1.07      0.45         0.42
  YS02001633YS02163601        1.09      1.09      1.12      0.60         0.59
  YS02001641YS02001644        0.90      0.97      0.90      1.74         0.89
  YS02001644YS02001647        0.61      0.61      0.90      0.04         0.01
  YS02001647YS02001649        0.61      0.61      0.67      0.01         0.01
  YS02001649YS02001757        0.66      0.67      0.67      0.52         0.41
  YS02001652YS02001649        0.52      0.52      0.67      0.01         0.01
  YS02001655YS02001652        0.39      0.39      0.50      0.01         0.01
  YS02001658YS02001655        0.29      0.29      0.39      0.01         0.01
  YS02001661YS02001658        0.11      0.11      0.29      0.01         0.01
  YS02001664YS02001661        0.01      0.01      0.16      0.01         0.01
  YS02001745YS02001748        0.01      0.01      0.19      0.01         0.01
  YS02001748YS02001751        0.25      0.25      0.32      0.01         0.01
  YS02001751YS02001754        0.32      0.32      0.40      0.01         0.01
  YS02001754YS02001757        0.42      0.42      0.67      0.01         0.01
  YS02001757CaochengTiaoxuchi        0.24      0.67      0.65      0.66         0.14
  YS02001759YS02001757        0.59      0.59      0.67      0.14         0.15
  YS02001762YS02001759        0.57      0.57      0.59      0.01         0.03
  YS02001765YS02001762        0.53      0.53      0.57      0.01         0.01
  YS02001767YS02001765        0.51      0.51      0.53      0.01         0.06
  YS02001770YS02001767        0.51      0.52      0.51      0.76         0.49
  YS02001774YS02001770        0.50      0.50      0.56      0.01         0.01
  YS02001779YS02001774        0.42      0.42      0.56      0.01         0.01
  YS02001783YS02001784        0.69      0.72      0.69      0.92         0.69
  YS02001784YS02001785        0.56      0.69      0.56      1.21         0.56
  YS02001786YS02001788        0.01      0.56      0.01      1.07         0.01
  YS02001790YS02001791        0.01      0.01      0.01      0.67         0.01
  YS02001882YS02001884        0.65      0.65      0.66      0.01         0.01
  YS02001884YS02001887        0.69      0.69      0.70      0.01         0.01
  YS02001887YS02001890        0.72      0.72      0.74      0.21         0.01
  YS02001890YS02001895        0.64      0.64      0.76      0.01         0.01
  YS02001895YS02001898        0.63      0.63      0.64      0.01         0.01
  YS02001898YS02001901        0.64      0.64      0.69      0.01         0.01
  YS02001901YS02001904        0.68      0.68      0.69      0.01         0.01
  YS02001904YS02001907        0.68      0.68      1.04      0.01         0.01
  YS02001907YS02006553        1.22      1.22      1.29      0.01         0.01
  YS02001910YS02001907        0.75      0.75      1.02      0.08         0.09
  YS02001915YS02001910        0.65      0.65      0.75      0.01         0.01
  YS02001918YS02001915        0.55      0.55      0.65      0.01         0.01
  YS02001920YS02001918        0.55      0.55      0.57      0.01         0.01
  YS02001923YS02001920        0.50      0.50      0.57      0.01         0.01
  YS02001926YS02001923        0.22      0.22      0.25      0.01         0.01
  YS02001929YS02001926        0.10      0.10      0.25      0.01         0.01
  YS02006553YS02006556        0.87      0.87      1.04      0.01         0.01
  YS02006556YS02006558        0.96      0.96      1.07      0.01         0.01
  YS02006558YS02006561        0.59      0.85      0.59      1.16         0.59
  YS02006561YS02001783        0.52      0.52      0.72      0.01         0.01
  YS02163301YS02001633        1.07      1.07      1.11      0.01         0.01
  YS02163601YS02164001        0.99      0.99      1.12      0.36         0.01
  YS02164001YS02001641        0.97      0.99      0.97      0.87         0.70
  
  
  ***************
  Pumping Summary
  ***************
  
  ---------------------------------------------------------------------------------------------------------
                                                  Min       Avg       Max     Total     Power    % Time Off
                        Percent   Number of      Flow      Flow      Flow    Volume     Usage    Pump Curve
  Pump                 Utilized   Start-Ups       LPS       LPS       LPS  10^6 ltr     Kw-hr    Low   High
  ---------------------------------------------------------------------------------------------------------
  CC-R1                   29.70           3      0.00    683.00    683.00     5.782     96.27    0.0   72.3
  CC-R2                   29.70           3      0.00    683.00    683.00     5.782     96.27    0.0   72.3
  CC-S1                   36.49           6      0.00    200.00    200.00     2.080     16.20    0.0   44.6
  CC-S2                   36.49           6      0.00    200.00    200.00     2.080     16.20    0.0   44.6
  JK-R1                    5.84          81      0.00    999.53   1000.00     1.664      4.82    0.0    0.0
  JK-R2                    5.84          81      0.00    999.53   1000.00     1.664      4.82    0.0    0.0
  JK-S                    21.49         110      0.00    299.94    300.00     1.836     41.24    0.0    0.0
  

  Analysis begun on:  Thu Jan 16 14:26:11 2025
  Analysis ended on:  Thu Jan 16 14:26:13 2025
  Total elapsed time: 00:00:02