
  EPA STORM WATER MANAGEMENT MODEL - VERSION 5.2 (Build 5.2.4)
  PYSWMM TOOLKIT API - VERSION v1.0 (2023-11-27)
  ------------------------------------------------------------

  WARNING 04: minimum elevation drop used for Conduit WS02004404WS02004405
  WARNING 03: negative offset ignored for Link YS02001904YS02001907
  
  ****************
  Analysis Options
  ****************
  Flow Units ............... LPS
  Process Models:
    Rainfall/Runoff ........ YES
    RDII ................... NO
    Snowmelt ............... NO
    Groundwater ............ NO
    Flow Routing ........... YES
    Ponding Allowed ........ NO
    Water Quality .......... NO
  Infiltration Method ...... HORTON
  Flow Routing Method ...... DYNWAVE
  Surcharge Method ......... EXTRAN
  Starting Date ............ 08/28/2015 08:00:00
  Ending Date .............. 08/28/2015 16:00:00
  Antecedent Dry Days ...... 8.0
  Report Time Step ......... 00:01:00
  Wet Time Step ............ 00:01:00
  Dry Time Step ............ 00:01:00
  Routing Time Step ........ 30.00 sec
  Variable Time Step ....... YES
  Maximum Trials ........... 8
  Number of Threads ........ 4
  Head Tolerance ........... 0.001500 m
  
  
  **************************        Volume         Depth
  Runoff Quantity Continuity     hectare-m            mm
  **************************     ---------       -------
  Total Precipitation ......         3.129        94.320
  Evaporation Loss .........         0.000         0.000
  Infiltration Loss ........         0.105         3.153
  Surface Runoff ...........         2.991        90.185
  Final Storage ............         0.033         0.998
  Continuity Error (%) .....        -0.018
  
  
  **************************        Volume        Volume
  Flow Routing Continuity        hectare-m      10^6 ltr
  **************************     ---------     ---------
  Dry Weather Inflow .......         0.025         0.248
  Wet Weather Inflow .......         2.991        29.911
  Groundwater Inflow .......         0.000         0.000
  RDII Inflow ..............         0.000         0.000
  External Inflow ..........         0.083         0.825
  External Outflow .........         2.175        21.747
  Flooding Loss ............         1.138        11.385
  Evaporation Loss .........         0.000         0.000
  Exfiltration Loss ........         0.000         0.000
  Initial Stored Volume ....         0.243         2.431
  Final Stored Volume ......         0.046         0.462
  Continuity Error (%) .....        -0.538
  
  
  *************************
  Highest Continuity Errors
  *************************
  Node YS02001884 (5.26%)
  Node YS02001583 (-4.42%)
  Node WS02006256 (-3.58%)
  Node JK-storage (-1.55%)
  
  
  ***************************
  Time-Step Critical Elements
  ***************************
  Link WS02006238WS02006235 (26.57%)
  Link WS02004404WS02004405 (20.41%)
  Link WS02003066WSF200 (13.49%)
  Link YS02001793JiankangQianchi (9.37%)
  Link YS02001791YS02001793 (6.12%)
  
  
  ********************************
  Highest Flow Instability Indexes
  ********************************
  Link WS02006113WS02006111 (38)
  Link WS02006252WS02006251 (33)
  Link WS02004404WS02004405 (27)
  Link WS02006238WS02006235 (25)
  Link WS02004403WS02004404 (24)
  
  
  *********************************
  Most Frequent Nonconverging Nodes
  *********************************
  Node CC-1 (39.73%)
  Node CC-2 (39.73%)
  Node JK-1 (39.73%)
  Node JK-2 (39.73%)
  Node WSC (39.73%)
  
  
  *************************
  Routing Time Step Summary
  *************************
  Minimum Time Step           :     0.00 sec
  Average Time Step           :     2.70 sec
  Maximum Time Step           :     6.43 sec
  % of Time in Steady State   :     0.00
  Average Iterations per Step :     4.80
  % of Steps Not Converging   :    39.73
  Time Step Frequencies       :
     30.000 - 13.228 sec      :     0.00 %
     13.228 -  5.833 sec      :    11.99 %
      5.833 -  2.572 sec      :    29.10 %
      2.572 -  1.134 sec      :    40.69 %
      1.134 -  0.500 sec      :    18.23 %
  
  
  ***************************
  Subcatchment Runoff Summary
  ***************************
  
  ------------------------------------------------------------------------------------------------------------------------------
                            Total      Total      Total      Total     Imperv       Perv      Total       Total     Peak  Runoff
                           Precip      Runon       Evap      Infil     Runoff     Runoff     Runoff      Runoff   Runoff   Coeff
  Subcatchment                 mm         mm         mm         mm         mm         mm         mm    10^6 ltr      LPS
  ------------------------------------------------------------------------------------------------------------------------------
  sub60                     94.32       0.00       0.00       1.89      81.80       9.43      91.23        1.20   719.70   0.967
  sub61                     94.32       0.00       0.00       2.74      77.16      13.30      90.46        1.66  1000.60   0.959
  sub62                     94.32       0.00       0.00       1.26      85.49       6.29      91.78        2.51  1428.95   0.973
  sub63                     94.32       0.00       0.00       5.05      66.00      22.30      88.30        2.00  1153.43   0.936
  sub64                     94.32       0.00       0.00       2.55      78.97      11.60      90.56        2.18  1183.39   0.960
  sub65                     94.32       0.00       0.00       2.21      80.80      10.05      90.86        2.50  1325.63   0.963
  sub66                     94.32       0.00       0.00       6.26      65.89      21.09      86.98        4.06  1816.29   0.922
  sub67                     94.32       0.00       0.00       1.21      85.53       6.34      91.87        1.71  1072.01   0.974
  sub68                     94.32       0.00       0.00       2.27      79.93      10.94      90.87        2.50  1460.48   0.963
  sub69                     94.32       0.00       0.00       2.05      80.06      12.10      92.16        3.41  1763.29   0.977
  sub70                     94.32       0.00       0.00       6.82      62.08      25.25      87.33        2.52  1026.46   0.926
  sub71                     94.32       0.00       0.00       1.29      85.45       6.26      91.70        2.40  1277.08   0.972
  sub72                     94.32       0.00       0.00       1.15      86.31       5.45      91.76        1.26   629.72   0.973
  
  
  ******************
  Node Depth Summary
  ******************
  
  ---------------------------------------------------------------------------------
                                 Average  Maximum  Maximum  Time of Max    Reported
                                   Depth    Depth      HGL   Occurrence   Max Depth
  Node                 Type       Meters   Meters   Meters  days hr:min      Meters
  ---------------------------------------------------------------------------------
  WS02003060           JUNCTION     0.25     0.38     5.31     0  03:15        0.38
  WS02003066           JUNCTION     0.20     0.30     5.85     0  03:14        0.30
  WS02003067           JUNCTION     0.51     0.70     6.02     0  03:14        0.70
  WS02003069           JUNCTION     0.28     0.43     5.01     0  03:16        0.43
  WS02003072           JUNCTION     0.34     0.50     4.87     0  03:16        0.50
  WS02003073           JUNCTION     0.19     0.30     4.36     0  03:17        0.30
  WS02004401           JUNCTION     0.63     0.87     6.87     0  03:13        0.87
  WS02004402           JUNCTION     0.66     0.90     6.86     0  03:13        0.90
  WS02004403           JUNCTION     0.68     0.92     6.85     0  03:12        0.92
  WS02004404           JUNCTION     0.75     1.01     6.86     0  03:12        1.00
  WS02004405           JUNCTION     0.73     0.97     6.82     0  03:12        0.96
  WS02004406           JUNCTION     0.74     0.96     6.79     0  03:12        0.96
  WS02004407           JUNCTION     0.19     0.30     6.61     0  03:13        0.30
  WS02004409           JUNCTION     0.42     0.67     6.44     0  03:13        0.66
  WS02004410           JUNCTION     0.44     0.68     6.40     0  03:13        0.68
  WS02004411           JUNCTION     0.46     0.69     6.37     0  03:14        0.69
  WS02004412           JUNCTION     0.48     0.70     6.34     0  03:14        0.70
  WS02004413           JUNCTION     0.63     0.86     6.33     0  03:14        0.86
  WS02006109           JUNCTION     0.70     1.28     7.90     0  02:55        1.05
  WS02006110           JUNCTION     0.69     1.33     7.91     0  02:56        1.01
  WS02006111           JUNCTION     0.19     0.29     6.99     0  03:08        0.29
  WS02006112           JUNCTION     0.79     1.16     7.05     0  01:42        1.07
  WS02006113           JUNCTION     0.30     0.46     7.35     0  01:35        0.45
  WS02006115           JUNCTION     0.52     0.77     6.91     0  03:11        0.77
  WS02006116           JUNCTION     0.60     0.85     6.89     0  03:12        0.85
  WS02006228           JUNCTION     0.71     1.59     8.24     0  02:55        1.14
  WS02006229           JUNCTION     0.69     1.68     8.37     0  02:55        1.18
  WS02006230           JUNCTION     0.71     2.06     8.80     0  02:55        1.32
  WS02006231           JUNCTION     0.50     2.24     9.36     0  02:32        1.32
  WS02006232           JUNCTION     0.64     2.08     9.12     0  02:32        1.61
  WS02006234           JUNCTION     0.58     1.96     9.12     0  01:41        1.96
  WS02006235           JUNCTION     0.63     2.00     9.16     0  01:52        2.00
  WS02006238           JUNCTION     0.65     2.15     9.29     0  02:26        2.15
  WS02006239           JUNCTION     0.63     2.03     9.24     0  02:06        2.03
  WS02006240           JUNCTION     0.60     2.10     9.39     0  02:06        2.10
  WS02006242           JUNCTION     0.68     1.55     8.82     0  01:39        1.55
  WS02006243           JUNCTION     0.60     1.48     8.90     0  02:01        1.48
  WS02006245           JUNCTION     0.60     1.56     9.04     0  02:06        1.56
  WS02006247           JUNCTION     0.62     1.47     8.97     0  01:44        1.47
  WS02006248           JUNCTION     0.59     1.10     8.69     0  01:38        1.10
  WS02006249           JUNCTION     0.62     1.09     8.69     0  01:32        1.09
  WS02006251           JUNCTION     0.62     1.61     9.28     0  01:45        1.23
  WS02006252           JUNCTION     0.39     1.50     9.74     0  00:00        0.87
  WS02006256           JUNCTION     1.20     2.35     9.28     0  00:00        2.35
  WSF200               JUNCTION     0.18     0.29     5.52     0  03:14        0.29
  YS02001580           JUNCTION     0.20     1.05     9.59     0  01:46        0.81
  YS02001583           JUNCTION     0.23     1.14     9.64     0  01:46        0.84
  YS02001586           JUNCTION     0.36     1.13     9.30     0  01:46        1.13
  YS02001590           JUNCTION     0.48     1.40     9.26     0  02:14        1.40
  YS02001593           JUNCTION     0.42     1.33     9.19     0  02:44        1.29
  YS02001596           JUNCTION     0.56     1.70     9.12     0  02:44        1.66
  YS02001600           JUNCTION     0.67     1.87     9.00     0  01:46        1.87
  YS02001601           JUNCTION     0.85     2.06     8.90     0  01:46        2.06
  YS02001602           JUNCTION     0.74     1.87     8.77     0  01:49        1.87
  YS02001605           JUNCTION     0.68     1.78     8.68     0  01:57        1.78
  YS02001607           JUNCTION     0.63     1.65     8.50     0  02:14        1.65
  YS02001610           JUNCTION     0.67     1.68     8.48     0  01:51        1.68
  YS02001613           JUNCTION     0.63     1.67     8.51     0  02:03        1.67
  YS02001616           JUNCTION     0.57     1.61     8.52     0  01:54        1.61
  YS02001619           JUNCTION     0.55     1.61     8.54     0  01:54        1.61
  YS02001622           JUNCTION     0.53     1.59     8.49     0  02:01        1.58
  YS02001625           JUNCTION     0.77     1.78     8.38     0  01:51        1.78
  YS02001629           JUNCTION     0.68     1.85     8.40     0  01:53        1.85
  YS02001633           JUNCTION     0.75     2.05     8.50     0  01:54        2.05
  YS02001641           JUNCTION     0.70     2.01     8.44     0  01:54        1.94
  YS02001644           JUNCTION     0.68     1.92     8.35     0  01:54        1.92
  YS02001647           JUNCTION     0.46     1.76     8.37     0  01:59        1.75
  YS02001649           JUNCTION     0.52     1.99     8.38     0  02:00        1.99
  YS02001652           JUNCTION     0.39     2.16     8.76     0  01:53        1.83
  YS02001655           JUNCTION     0.30     2.09     8.94     0  01:53        1.65
  YS02001658           JUNCTION     0.21     1.45     8.59     0  02:00        1.44
  YS02001661           JUNCTION     0.21     1.25     8.66     0  02:01        1.25
  YS02001664           JUNCTION     0.10     0.74     8.66     0  02:01        0.73
  YS02001745           JUNCTION     0.11     0.88     8.40     0  02:00        0.88
  YS02001748           JUNCTION     0.19     1.60     8.68     0  01:55        1.30
  YS02001751           JUNCTION     0.24     1.57     8.45     0  01:54        1.46
  YS02001754           JUNCTION     0.33     1.71     8.32     0  02:00        1.71
  YS02001757           JUNCTION     0.52     2.03     8.29     0  02:00        2.02
  YS02001759           JUNCTION     0.46     2.05     8.41     0  02:01        2.05
  YS02001762           JUNCTION     0.45     2.02     8.42     0  02:00        2.01
  YS02001765           JUNCTION     0.43     1.98     8.43     0  02:00        1.96
  YS02001767           JUNCTION     0.42     1.95     8.44     0  01:59        1.93
  YS02001770           JUNCTION     0.44     1.95     8.44     0  01:59        1.95
  YS02001774           JUNCTION     0.50     2.01     8.43     0  02:03        2.01
  YS02001779           JUNCTION     0.32     1.68     8.37     0  01:52        1.68
  YS02001783           JUNCTION     0.39     1.28     7.42     0  01:51        1.25
  YS02001784           JUNCTION     0.39     1.14     7.21     0  01:51        1.13
  YS02001786           JUNCTION     0.32     0.90     6.93     0  01:51        0.88
  YS02001788           JUNCTION     0.23     0.62     6.60     0  02:01        0.62
  YS02001790           JUNCTION     0.27     0.73     6.37     0  02:07        0.72
  YS02001791           JUNCTION     0.17     0.44     5.91     0  01:59        0.44
  YS02001793           JUNCTION     0.09     0.26     5.09     0  02:08        0.26
  YS02001882           JUNCTION     0.48     1.68     8.40     0  02:01        1.68
  YS02001884           JUNCTION     0.57     1.77     8.39     0  02:00        1.77
  YS02001887           JUNCTION     0.64     1.86     8.40     0  01:54        1.86
  YS02001890           JUNCTION     0.67     1.81     8.32     0  01:51        1.81
  YS02001895           JUNCTION     0.45     1.57     8.32     0  01:55        1.56
  YS02001898           JUNCTION     0.46     1.57     8.30     0  01:51        1.56
  YS02001901           JUNCTION     0.56     1.70     8.31     0  01:54        1.70
  YS02001904           JUNCTION     0.54     1.65     8.28     0  01:54        1.65
  YS02001907           JUNCTION     0.84     1.96     8.25     0  01:51        1.96
  YS02001910           JUNCTION     0.66     2.00     8.51     0  01:52        1.99
  YS02001915           JUNCTION     0.50     1.98     8.70     0  02:02        1.98
  YS02001918           JUNCTION     0.32     1.81     8.88     0  01:52        1.67
  YS02001920           JUNCTION     0.39     2.14     9.15     0  01:52        1.74
  YS02001923           JUNCTION     0.25     2.03     9.29     0  01:52        1.51
  YS02001926           JUNCTION     0.26     1.90     9.35     0  01:52        1.34
  YS02001929           JUNCTION     0.17     1.78     9.47     0  01:52        1.13
  YS02006553           JUNCTION     0.85     2.00     8.28     0  01:54        2.00
  YS02006556           JUNCTION     0.82     2.01     8.32     0  01:54        2.01
  YS02006558           JUNCTION     0.86     2.04     8.31     0  01:54        2.04
  YS02006561           JUNCTION     0.25     0.98     7.64     0  01:51        0.90
  YS02163301           JUNCTION     0.70     1.94     8.45     0  01:54        1.92
  YS02163601           JUNCTION     0.77     2.08     8.48     0  01:54        2.04
  YS02164001           JUNCTION     0.69     2.03     8.49     0  01:54        1.94
  CC-1                 OUTFALL      0.00     0.00     0.00     0  00:00        0.00
  CC-2                 OUTFALL      0.00     0.00     0.00     0  00:00        0.00
  JK-1                 OUTFALL      0.00     0.00     0.00     0  00:00        0.00
  JK-2                 OUTFALL      0.00     0.00     0.00     0  00:00        0.00
  WSC                  OUTFALL      0.19     0.30     0.97     0  03:17        0.30
  CC-storage           STORAGE      0.44     1.32     6.82     0  02:44        1.32
  JK-storage           STORAGE      0.14     2.99     3.79     0  00:00        0.68
  
  
  *******************
  Node Inflow Summary
  *******************
  
  -------------------------------------------------------------------------------------------------
                                  Maximum  Maximum                  Lateral       Total        Flow
                                  Lateral    Total  Time of Max      Inflow      Inflow     Balance
                                   Inflow   Inflow   Occurrence      Volume      Volume       Error
  Node                 Type           LPS      LPS  days hr:min    10^6 ltr    10^6 ltr     Percent
  -------------------------------------------------------------------------------------------------
  WS02003060           JUNCTION     16.53   551.33     0  03:15       0.471        5.75       0.036
  WS02003066           JUNCTION      0.00   534.18     0  03:14           0        5.28       0.028
  WS02003067           JUNCTION      0.00   533.95     0  03:14           0        5.28       0.078
  WS02003069           JUNCTION      0.32   551.49     0  03:15     0.00912        5.75       0.069
  WS02003072           JUNCTION      0.00   550.98     0  03:16           0        5.75       0.127
  WS02003073           JUNCTION      1.82   552.34     0  03:17      0.0519         5.8       0.096
  WS02004401           JUNCTION      0.00   538.75     0  03:15           0        5.38       0.189
  WS02004402           JUNCTION      0.00   538.40     0  03:15           0        5.37       0.192
  WS02004403           JUNCTION      0.00   540.10     0  03:12           0        5.36       0.187
  WS02004404           JUNCTION      0.16   549.06     0  03:12     0.00462        5.35       0.121
  WS02004405           JUNCTION      0.04   596.59     0  03:12     0.00109        5.35       0.170
  WS02004406           JUNCTION      0.00   542.43     0  03:12           0        5.34       0.389
  WS02004407           JUNCTION      0.00   537.98     0  03:13           0        5.32       0.018
  WS02004409           JUNCTION      0.00   537.07     0  03:13           0        5.32       0.048
  WS02004410           JUNCTION      0.00   536.04     0  03:13           0        5.31       0.085
  WS02004411           JUNCTION      0.00   535.45     0  03:13           0        5.31       0.105
  WS02004412           JUNCTION      0.00   534.73     0  03:14           0         5.3       0.140
  WS02004413           JUNCTION      0.00   534.38     0  03:14           0         5.3       0.261
  WS02006109           JUNCTION      1.23   564.78     0  02:56      0.0351        5.42       0.045
  WS02006110           JUNCTION      0.00   564.43     0  02:56           0        5.41       0.103
  WS02006111           JUNCTION      0.00   559.84     0  03:04           0        5.41       0.015
  WS02006112           JUNCTION      0.00   543.30     0  03:08           0         5.4       0.371
  WS02006113           JUNCTION      0.00   570.08     0  02:51           0        5.41       0.034
  WS02006115           JUNCTION      0.00   552.64     0  01:41           0        5.38       0.129
  WS02006116           JUNCTION      0.00   541.38     0  01:41           0        5.38      -0.018
  WS02006228           JUNCTION      0.00   562.85     0  02:56           0        5.38      -0.006
  WS02006229           JUNCTION      0.00   562.59     0  02:56           0        5.39       0.142
  WS02006230           JUNCTION     10.28   598.82     0  02:06       0.293        5.39      -0.009
  WS02006231           JUNCTION      0.00   606.19     0  01:45           0        5.08      -0.209
  WS02006232           JUNCTION      0.00   604.20     0  01:45           0         5.1       0.403
  WS02006234           JUNCTION      0.00   594.49     0  01:45           0        5.08      -0.513
  WS02006235           JUNCTION      0.00   578.14     0  01:45           0        5.18       0.433
  WS02006238           JUNCTION      0.00   423.45     0  03:15           0        3.97      -0.166
  WS02006239           JUNCTION      0.00   423.45     0  03:15           0        3.91      -0.158
  WS02006240           JUNCTION      0.00   421.14     0  03:15           0        3.86      -0.101
  WS02006242           JUNCTION      0.00   421.47     0  03:15           0        3.85      -0.029
  WS02006243           JUNCTION      0.00   420.82     0  03:15           0        3.84      -0.108
  WS02006245           JUNCTION      0.00   495.62     0  01:44           0        3.86       0.500
  WS02006247           JUNCTION      0.00   477.78     0  01:44           0        3.86       0.006
  WS02006248           JUNCTION      0.00   506.58     0  01:44           0        3.88       0.148
  WS02006249           JUNCTION      0.00   498.58     0  01:43           0        4.14       0.332
  WS02006251           JUNCTION      0.08   406.81     0  01:32     0.00219        4.14       0.003
  WS02006252           JUNCTION      0.00   400.00     0  00:00           0        4.14      -0.048
  WS02006256           JUNCTION      0.00   327.26     0  02:05           0        1.89      -3.459
  WSF200               JUNCTION      0.00   534.29     0  03:14           0        5.28       0.007
  YS02001580           JUNCTION      0.00    73.69     0  01:46           0     0.00414       2.130
  YS02001583           JUNCTION      0.00   125.06     0  01:46           0      0.0155      -4.232
  YS02001586           JUNCTION   1026.46  1026.46     0  02:04        2.52        2.53       0.043
  YS02001590           JUNCTION      0.00   317.96     0  02:21           0         1.7      -0.024
  YS02001593           JUNCTION      0.00   318.00     0  02:14           0         1.7       0.010
  YS02001596           JUNCTION      0.00   317.93     0  02:21           0         1.7       0.002
  YS02001600           JUNCTION      0.00   318.06     0  02:25           0         1.7       0.018
  YS02001601           JUNCTION   1763.29  2081.04     0  02:03        3.41        5.11       0.017
  YS02001602           JUNCTION      0.00   498.56     0  01:45           0        2.79       0.020
  YS02001605           JUNCTION      0.00   498.40     0  02:44           0        2.63       0.021
  YS02001607           JUNCTION      0.00   498.68     0  02:44           0        2.63       0.077
  YS02001610           JUNCTION      0.00   952.41     0  02:06           0        3.22       0.079
  YS02001613           JUNCTION      0.00   616.13     0  02:06           0        2.54       0.065
  YS02001616           JUNCTION      0.00   615.95     0  02:06           0        2.54       0.018
  YS02001619           JUNCTION   1816.29  1816.29     0  02:03        4.06        6.01       0.002
  YS02001622           JUNCTION      0.00  1053.86     0  02:04           0        5.38      -0.000
  YS02001625           JUNCTION      0.00  1504.89     0  02:06           0        5.76       0.162
  YS02001629           JUNCTION      0.00   928.46     0  01:51           0        4.47       0.022
  YS02001633           JUNCTION   1325.83  1365.67     0  01:51        2.51        6.49       0.055
  YS02001641           JUNCTION      0.00  1363.92     0  01:51           0        6.02       0.047
  YS02001644           JUNCTION   1183.43  1838.91     0  02:02        2.18        8.19       0.040
  YS02001647           JUNCTION      0.00  1767.41     0  01:51           0        7.34       0.005
  YS02001649           JUNCTION      0.00  2018.58     0  01:52           0        9.35       0.005
  YS02001652           JUNCTION      0.00  1163.25     0  02:01           0        2.01      -0.065
  YS02001655           JUNCTION      0.15  1163.38     0  02:01     0.00439        2.01       0.002
  YS02001658           JUNCTION      0.00  1162.89     0  02:01           0           2      -0.000
  YS02001661           JUNCTION      0.00  1163.00     0  02:01           0           2       0.002
  YS02001664           JUNCTION   1153.43  1153.43     0  02:02           2           2      -0.005
  YS02001745           JUNCTION    719.70   719.70     0  02:02         1.2         1.2       0.089
  YS02001748           JUNCTION      0.04   730.52     0  02:01     0.00128         1.2      -0.117
  YS02001751           JUNCTION      0.01   730.81     0  02:01    0.000313         1.2      -0.035
  YS02001754           JUNCTION      0.26   731.54     0  02:01     0.00741        1.21      -0.059
  YS02001757           JUNCTION      0.00  3571.63     0  02:02           0        14.3       0.038
  YS02001759           JUNCTION   1000.64  1501.76     0  02:02        1.66        3.77      -0.008
  YS02001762           JUNCTION      0.00   828.78     0  02:10           0        2.11       0.008
  YS02001765           JUNCTION      0.00   828.57     0  02:10           0        2.11       0.013
  YS02001767           JUNCTION      0.54   828.14     0  02:10      0.0152        2.11       0.007
  YS02001770           JUNCTION   1429.10  1429.10     0  02:02        2.52        2.56       0.002
  YS02001774           JUNCTION      0.00   848.35     0  02:03           0        0.47       0.306
  YS02001779           JUNCTION      0.01   848.40     0  02:03    0.000142       0.427      -0.119
  YS02001783           JUNCTION      0.00  1168.10     0  02:01           0        5.22       0.006
  YS02001784           JUNCTION      1.06  1169.20     0  02:01      0.0302        5.25       0.009
  YS02001786           JUNCTION      0.06  1169.64     0  02:01      0.0016        5.25       0.014
  YS02001788           JUNCTION      0.07  1169.32     0  02:01     0.00202        5.25       0.005
  YS02001790           JUNCTION      0.15  1179.31     0  02:01     0.00442        5.26       0.011
  YS02001791           JUNCTION      0.00  1292.68     0  02:00           0        5.26      -0.018
  YS02001793           JUNCTION      0.00  1256.98     0  02:04           0        5.26      -0.033
  YS02001882           JUNCTION      0.00    33.49     0  01:49           0       0.013       5.507
  YS02001884           JUNCTION      0.00    43.19     0  01:48           0       0.049       5.551
  YS02001887           JUNCTION   1072.46  1074.68     0  02:01        1.72        1.75       0.254
  YS02001890           JUNCTION      0.00  1076.29     0  02:01           0        1.71       0.303
  YS02001895           JUNCTION      0.00   519.87     0  02:06           0        1.46       0.128
  YS02001898           JUNCTION      0.00   519.21     0  02:06           0        1.46       0.008
  YS02001901           JUNCTION      0.00   518.09     0  02:06           0        1.46       0.236
  YS02001904           JUNCTION      0.00   518.31     0  02:06           0        1.47       0.196
  YS02001907           JUNCTION      0.00  2722.98     0  02:02           0        5.28       0.344
  YS02001910           JUNCTION      0.00  1906.58     0  02:02           0        3.74       0.193
  YS02001915           JUNCTION   1277.10  1906.09     0  02:02         2.4        3.77       0.044
  YS02001918           JUNCTION      0.00   634.01     0  02:03           0        1.39       0.006
  YS02001920           JUNCTION      2.87   634.61     0  02:03      0.0818        1.38       0.080
  YS02001923           JUNCTION      0.04   631.23     0  02:03     0.00107        1.28      -0.029
  YS02001926           JUNCTION      0.05   630.80     0  02:03     0.00149        1.27      -0.012
  YS02001929           JUNCTION    629.72   629.72     0  02:03        1.26        1.26      -0.044
  YS02006553           JUNCTION      0.00   794.11     0  02:25           0         2.9       0.411
  YS02006556           JUNCTION      0.00   794.28     0  02:25           0        2.91       0.284
  YS02006558           JUNCTION   1461.36  1461.36     0  02:02        2.53        5.33       0.064
  YS02006561           JUNCTION      0.00  1168.03     0  02:01           0        5.22      -0.001
  YS02163301           JUNCTION      0.00   927.88     0  01:50           0        4.46       0.039
  YS02163601           JUNCTION      0.11  1365.48     0  01:51     0.00313        6.01       0.086
  YS02164001           JUNCTION      0.00  1365.00     0  01:51           0        6.01       0.043
  CC-1                 OUTFALL       0.00   683.00     0  00:00           0        6.17       0.000
  CC-2                 OUTFALL       0.00   683.00     0  00:00           0        6.17       0.000
  JK-1                 OUTFALL       0.00  1000.00     0  00:00           0         1.8       0.000
  JK-2                 OUTFALL       0.00  1000.00     0  00:00           0         1.8       0.000
  WSC                  OUTFALL       0.00   551.64     0  03:17           0        5.79       0.000
  CC-storage           STORAGE       0.00  3571.47     0  02:03           0        16.6      -0.316
  JK-storage           STORAGE       0.00  1359.32     0  02:24           0        5.41      -1.526
  
  
  **********************
  Node Surcharge Summary
  **********************
  
  Surcharging occurs when water rises above the top of the highest conduit.
  ---------------------------------------------------------------------
                                               Max. Height   Min. Depth
                                   Hours       Above Crown    Below Rim
  Node                 Type      Surcharged         Meters       Meters
  ---------------------------------------------------------------------
  WS02004404           JUNCTION        0.01          0.014        2.766
  WS02006109           JUNCTION        2.39          0.461        1.359
  WS02006110           JUNCTION        0.51          0.418        1.432
  WS02006112           JUNCTION        1.64          0.163        1.517
  WS02006228           JUNCTION        2.37          0.761        1.439
  WS02006229           JUNCTION        2.40          0.875        1.575
  WS02006230           JUNCTION        0.58          0.979        0.591
  WS02006231           JUNCTION        1.27          1.530        0.000
  WS02006232           JUNCTION        2.46          1.383        0.097
  WS02006234           JUNCTION        1.79          1.240        0.000
  WS02006235           JUNCTION        2.08          1.290        0.000
  WS02006238           JUNCTION        2.29          1.430        0.000
  WS02006239           JUNCTION        2.30          1.290        0.000
  WS02006240           JUNCTION        2.38          1.390        0.000
  WS02006242           JUNCTION        2.48          0.820        0.000
  WS02006243           JUNCTION        2.38          0.770        0.000
  WS02006245           JUNCTION        2.37          0.850        0.000
  WS02006247           JUNCTION        2.39          0.760        0.000
  WS02006248           JUNCTION        2.36          0.380        0.000
  WS02006249           JUNCTION        2.38          0.390        0.000
  WS02006251           JUNCTION        1.72          0.578        0.602
  WS02006252           JUNCTION        2.87          1.100        0.000
  WS02006256           JUNCTION        5.81          2.050        0.000
  YS02001580           JUNCTION        0.94          0.450        0.000
  YS02001583           JUNCTION        0.94          0.500        0.000
  YS02001586           JUNCTION        1.06          0.510        0.000
  YS02001590           JUNCTION        1.16          0.750        0.000
  YS02001593           JUNCTION        1.16          0.709        0.131
  YS02001596           JUNCTION        1.30          0.968        0.102
  YS02001600           JUNCTION        1.47          1.190        0.000
  YS02001601           JUNCTION        1.76          1.440        0.000
  YS02001602           JUNCTION        1.67          1.270        0.000
  YS02001605           JUNCTION        1.62          1.180        0.000
  YS02001607           JUNCTION        1.08          0.653        0.027
  YS02001610           JUNCTION        1.12          0.680        0.000
  YS02001613           JUNCTION        1.07          0.670        0.030
  YS02001616           JUNCTION        1.02          0.610        0.000
  YS02001619           JUNCTION        1.00          0.610        0.000
  YS02001622           JUNCTION        0.99          0.585        0.035
  YS02001625           JUNCTION        1.24          0.780        0.000
  YS02001629           JUNCTION        0.88          0.470        0.000
  YS02001633           JUNCTION        1.25          1.029        0.031
  YS02001641           JUNCTION        1.11          1.006        0.094
  YS02001644           JUNCTION        1.05          0.920        0.000
  YS02001647           JUNCTION        0.74          0.759        0.141
  YS02001649           JUNCTION        0.85          0.991        0.059
  YS02001652           JUNCTION        0.60          1.130        0.000
  YS02001655           JUNCTION        0.43          1.086        0.114
  YS02001658           JUNCTION        0.30          0.450        0.850
  YS02001661           JUNCTION        0.11          0.182        1.208
  YS02001748           JUNCTION        0.19          0.525        0.665
  YS02001751           JUNCTION        0.32          0.569        0.631
  YS02001754           JUNCTION        0.44          0.665        0.485
  YS02001757           JUNCTION        0.89          1.027        0.183
  YS02001759           JUNCTION        0.76          1.045        0.165
  YS02001762           JUNCTION        0.72          1.017        0.133
  YS02001765           JUNCTION        0.67          0.977        0.123
  YS02001767           JUNCTION        0.63          0.947        0.083
  YS02001770           JUNCTION        0.60          0.920        0.000
  YS02001774           JUNCTION        0.71          1.007        0.043
  YS02001779           JUNCTION        0.47          0.680        0.000
  YS02001783           JUNCTION        0.79          0.480        1.120
  YS02001784           JUNCTION        0.76          0.339        1.151
  YS02001786           JUNCTION        0.62          0.095        1.335
  YS02001882           JUNCTION        0.71          0.683        0.147
  YS02001884           JUNCTION        0.73          0.714        0.156
  YS02001887           JUNCTION        0.78          0.808        0.142
  YS02001890           JUNCTION        0.80          0.760        0.000
  YS02001895           JUNCTION        0.70          0.568        0.182
  YS02001898           JUNCTION        0.69          0.539        0.201
  YS02001901           JUNCTION        0.76          0.700        0.170
  YS02001904           JUNCTION        0.74          0.654        0.196
  YS02001907           JUNCTION        1.08          0.950        0.000
  YS02001910           JUNCTION        0.83          0.998        0.102
  YS02001915           JUNCTION        0.71          0.980        0.020
  YS02001918           JUNCTION        0.61          0.810        0.000
  YS02001920           JUNCTION        0.62          1.140        0.000
  YS02001923           JUNCTION        0.22          0.820        0.000
  YS02001926           JUNCTION        0.27          0.900        0.000
  YS02001929           JUNCTION        0.09          0.780        0.000
  YS02006553           JUNCTION        1.11          0.999        0.191
  YS02006556           JUNCTION        0.95          0.968        0.382
  YS02006558           JUNCTION        0.94          0.945        0.455
  YS02006561           JUNCTION        0.57          0.175        0.975
  YS02163301           JUNCTION        1.22          0.936        0.094
  YS02163601           JUNCTION        1.28          1.080        0.000
  YS02164001           JUNCTION        1.13          1.027        0.073
  
  
  *********************
  Node Flooding Summary
  *********************
  
  Flooding refers to all water that overflows a node, whether it ponds or not.
  --------------------------------------------------------------------------
                                                             Total   Maximum
                                 Maximum   Time of Max       Flood    Ponded
                        Hours       Rate    Occurrence      Volume     Depth
  Node                 Flooded       LPS   days hr:min    10^6 ltr    Meters
  --------------------------------------------------------------------------
  WS02006231              0.01     74.91      0  02:51       0.000     0.000
  WS02006234              0.01    162.77      0  02:48       0.001     0.000
  WS02006235              0.01     45.23      0  02:41       0.000     0.000
  WS02006238              0.01     20.44      0  02:26       0.000     0.000
  WS02006239              0.01      7.06      0  02:41       0.000     0.000
  WS02006240              0.01      4.57      0  02:14       0.000     0.000
  WS02006242              0.04    130.26      0  01:44       0.002     0.000
  WS02006243              0.01      5.41      0  02:06       0.000     0.000
  WS02006245              0.01      4.10      0  02:06       0.000     0.000
  WS02006247              0.01    182.67      0  01:44       0.000     0.000
  WS02006248              0.26     35.96      0  02:09       0.014     0.000
  WS02006249              1.51     92.86      0  01:43       0.251     0.000
  WS02006252              0.01    271.60      0  01:43       0.000     0.000
  WS02006256              1.75    300.10      0  02:05       0.704     0.000
  YS02001583              0.01     74.88      0  01:46       0.000     0.000
  YS02001586              0.75    708.98      0  02:04       0.820     0.000
  YS02001590              0.01      0.08      0  02:14       0.000     0.000
  YS02001600              0.01      4.57      0  02:44       0.000     0.000
  YS02001601              0.96   1683.14      0  02:03       2.325     0.000
  YS02001602              0.73     62.07      0  02:16       0.152     0.000
  YS02001605              0.01      0.17      0  01:57       0.000     0.000
  YS02001610              0.66    952.10      0  02:06       1.262     0.000
  YS02001616              0.08      1.36      0  02:06       0.000     0.000
  YS02001619              0.12    157.81      0  02:03       0.041     0.000
  YS02001625              0.58   1504.72      0  02:07       1.759     0.000
  YS02001629              0.24    235.74      0  02:02       0.103     0.000
  YS02001644              0.28   1653.48      0  02:02       0.833     0.000
  YS02001652              0.01     95.92      0  01:53       0.000     0.000
  YS02001770              0.06     93.70      0  02:01       0.011     0.000
  YS02001779              0.25    848.17      0  02:03       0.408     0.000
  YS02001890              0.28    558.86      0  02:01       0.247     0.000
  YS02001907              0.54   2722.22      0  02:02       2.448     0.000
  YS02001918              0.01     94.89      0  01:52       0.000     0.000
  YS02001920              0.01     21.00      0  01:52       0.000     0.000
  YS02001923              0.01     74.83      0  01:52       0.000     0.000
  YS02001926              0.01     42.80      0  01:52       0.000     0.000
  YS02001929              0.01    210.65      0  01:52       0.000     0.000
  YS02163601              0.01     10.63      0  01:54       0.000     0.000
  
  
  **********************
  Storage Volume Summary
  **********************
  
  ------------------------------------------------------------------------------------------------
                         Average    Avg   Evap  Exfil     Maximum    Max    Time of Max    Maximum
                          Volume   Pcnt   Pcnt   Pcnt      Volume   Pcnt     Occurrence    Outflow
  Storage Unit           1000 m³   Full   Loss   Loss     1000 m³   Full    days hr:min        LPS
  ------------------------------------------------------------------------------------------------
  CC-storage               1.223   19.1    0.0    0.0       3.690   57.6       0  02:44    1783.53
  JK-storage               0.007    2.4    0.0    0.0       0.150   51.6       0  00:00    2300.00
  
  
  ***********************
  Outfall Loading Summary
  ***********************
  
  -----------------------------------------------------------
                         Flow       Avg       Max       Total
                         Freq      Flow      Flow      Volume
  Outfall Node           Pcnt       LPS       LPS    10^6 ltr
  -----------------------------------------------------------
  CC-1                  54.41    683.00    683.00       6.174
  CC-2                  54.41    683.00    683.00       6.174
  JK-1                  11.30    999.66   1000.00       1.804
  JK-2                  11.30    999.66   1000.00       1.804
  WSC                   99.94    291.67    551.64       5.790
  -----------------------------------------------------------
  System                46.27   3656.99   3901.21      21.747
  
  
  ********************
  Link Flow Summary
  ********************
  
  -----------------------------------------------------------------------------
                                 Maximum  Time of Max   Maximum    Max/    Max/
                                  |Flow|   Occurrence   |Veloc|    Full    Full
  Link                 Type          LPS  days hr:min     m/sec    Flow   Depth
  -----------------------------------------------------------------------------
  1                    CONDUIT    551.64     0  03:17      2.82    0.19    0.30
  WS02003060WS02003069 CONDUIT    551.17     0  03:15      1.64    0.22    0.34
  WS02003066WSF200     CONDUIT    534.29     0  03:14      2.85    0.09    0.22
  WS02003067WS02003066 CONDUIT    534.18     0  03:14      1.20    0.17    0.41
  WS02003069WS02003072 CONDUIT    550.98     0  03:16      1.37    0.27    0.39
  WS02003072WS02003073 CONDUIT    550.52     0  03:17      1.43    1.19    0.37
  WS02004401WS02004402 CONDUIT    538.40     0  03:15      1.22    0.65    0.89
  WS02004402WS02004403 CONDUIT    540.10     0  03:12      1.24    0.78    0.91
  WS02004403WS02004404 CONDUIT    548.90     0  03:12      1.24    0.40    0.96
  WS02004404WS02004405 CONDUIT    596.55     0  03:12      1.45    5.84    0.98
  WS02004405WS02004406 CONDUIT    542.43     0  03:12      1.46    1.07    0.96
  WS02004406WS02004407 CONDUIT    537.98     0  03:13      1.04    0.24    0.63
  WS02004407WS02004409 CONDUIT    537.07     0  03:13      1.64    0.19    0.48
  WS02004409WS02004410 CONDUIT    536.04     0  03:13      1.06    0.69    0.67
  WS02004410WS02004411 CONDUIT    535.45     0  03:13      1.12    0.73    0.68
  WS02004411WS02004412 CONDUIT    534.73     0  03:14      1.22    0.76    0.69
  WS02004412WS02004413 CONDUIT    534.38     0  03:14      1.22    0.36    0.78
  WS02004413WS02003067 CONDUIT    533.95     0  03:14      1.11    0.23    0.59
  WS02006109WS02006110 CONDUIT    564.43     0  02:56      1.12    1.09    1.00
  WS02006110WS02006113 CONDUIT    570.08     0  02:51      1.38    0.52    0.78
  WS02006111WS02006112 CONDUIT    543.30     0  03:08      1.95    0.26    0.67
  WS02006112WS02006115 CONDUIT    552.64     0  01:41      0.88    0.33    0.88
  WS02006113WS02006111 CONDUIT    559.84     0  03:04      2.47    0.67    0.46
  WS02006115WS02006116 CONDUIT    541.38     0  01:41      1.29    0.69    0.78
  WS02006116WS02004401 CONDUIT    538.75     0  03:15      1.21    0.74    0.86
  WS02006228WS02006109 CONDUIT    563.55     0  02:56      1.12    2.46    1.00
  WS02006229WS02006228 CONDUIT    562.85     0  02:56      1.12    1.86    1.00
  WS02006230WS02006229 CONDUIT    562.59     0  02:56      1.46   12.52    1.00
  WS02006231WS02006230 CONDUIT    588.54     0  02:06      1.59    8.93    1.00
  WS02006232WS02006231 CONDUIT    606.19     0  01:45      1.59    1.27    1.00
  WS02006234WS02006232 CONDUIT    604.20     0  01:45      1.57    1.22    1.00
  WS02006235WS02006234 CONDUIT    594.49     0  01:45      1.54    6.27    1.00
  WS02006238WS02006235 CONDUIT    428.26     0  03:28      1.45    0.96    1.00
  WS02006239WS02006238 CONDUIT    423.45     0  03:15      1.17    1.35    1.00
  WS02006240WS02006239 CONDUIT    423.45     0  03:15      1.29    1.33    1.00
  WS02006242WS02006240 CONDUIT    421.14     0  03:15      1.18    1.67    1.00
  WS02006243WS02006242 CONDUIT    421.47     0  03:15      1.42    0.90    1.00
  WS02006245WS02006243 CONDUIT    420.82     0  03:15      1.44    1.24    1.00
  WS02006247WS02006245 CONDUIT    495.62     0  01:44      1.43    3.93    1.00
  WS02006248WS02006247 CONDUIT    477.78     0  01:44      1.43    1.04    1.00
  WS02006249WS02006248 CONDUIT    506.58     0  01:44      1.37    2.78    1.00
  WS02006251WS02006249 CONDUIT    498.58     0  01:43      1.99    1.44    1.00
  WS02006252WS02006251 CONDUIT    406.74     0  01:32     26.49    1.49    1.00
  WS02006256WS02006235 CONDUIT    288.91     0  00:00      4.23    3.06    1.00
  WSF200WS02003060     CONDUIT    534.80     0  03:15      2.06    0.12    0.28
  YS02001580YS02001583 CONDUIT     73.69     0  01:46      0.53    0.29    1.00
  YS02001583YS02001586 CONDUIT    125.06     0  01:46      0.52    0.19    1.00
  YS02001586YS02001590 CONDUIT    317.96     0  02:21      1.28    0.56    1.00
  YS02001590YS02001593 CONDUIT    318.00     0  02:14      1.12    2.00    1.00
  YS02001593YS02001596 CONDUIT    317.93     0  02:21      1.76    0.50    1.00
  YS02001596YS02001600 CONDUIT    318.06     0  02:25      1.27    0.62    1.00
  YS02001600YS02001601 CONDUIT    318.01     0  02:25      1.12    0.55    1.00
  YS02001601YS02001602 CONDUIT    498.56     0  01:45      1.76    1.80    1.00
  YS02001602YS02001605 CONDUIT    498.40     0  02:44      1.76   10.55    1.00
  YS02001605YS02001607 CONDUIT    498.68     0  02:44      1.76    2.73    1.00
  YS02001607YS02001610 CONDUIT    499.32     0  02:44      0.64    0.47    1.00
  YS02001610YS02001613 CONDUIT    615.83     0  02:06      0.78    0.71    1.00
  YS02001613YS02001616 CONDUIT    616.13     0  02:06      0.78    0.53    1.00
  YS02001616YS02001619 CONDUIT    615.95     0  02:06      0.78    1.07    1.00
  YS02001619YS02001622 CONDUIT   1053.86     0  02:04      1.34    1.55    1.00
  YS02001622YS02001625 CONDUIT   1053.67     0  02:06      1.34    0.56    1.00
  YS02001625YS02001629 CONDUIT    928.46     0  01:51      1.18    0.44    1.00
  YS02001629YS02163301 CONDUIT    927.88     0  01:50      1.18    1.14    1.00
  YS02001633YS02163601 CONDUIT   1365.37     0  01:51      1.74    1.43    1.00
  YS02001641YS02001644 CONDUIT   1364.56     0  01:51      1.74    4.41    1.00
  YS02001644YS02001647 CONDUIT   1767.41     0  01:51      2.25    1.04    1.00
  YS02001647YS02001649 CONDUIT   1781.24     0  01:51      2.30    0.94    1.00
  YS02001649YS02001757 CONDUIT   2019.74     0  01:52      2.57    1.23    1.00
  YS02001652YS02001649 CONDUIT   1163.26     0  02:01      1.48    0.58    1.00
  YS02001655YS02001652 CONDUIT   1163.25     0  02:01      1.48    0.56    1.00
  YS02001658YS02001655 CONDUIT   1163.22     0  02:01      1.82    0.49    1.00
  YS02001661YS02001658 CONDUIT   1162.89     0  02:01      2.27    0.46    1.00
  YS02001664YS02001661 CONDUIT   1163.00     0  02:01      2.25    0.36    0.87
  YS02001745YS02001748 CONDUIT    730.48     0  02:01      2.12    0.28    0.94
  YS02001748YS02001751 CONDUIT    730.80     0  02:01      1.64    0.37    1.00
  YS02001751YS02001754 CONDUIT    731.28     0  02:01      1.36    0.35    1.00
  YS02001754YS02001757 CONDUIT    731.66     0  02:01      0.93    0.29    1.00
  YS02001757CaochengTiaoxuchi CONDUIT   3571.47     0  02:03      6.68    1.55    1.00
  YS02001759YS02001757 CONDUIT   1501.41     0  02:03      1.91    1.07    1.00
  YS02001762YS02001759 CONDUIT    828.81     0  02:10      1.06    0.95    1.00
  YS02001765YS02001762 CONDUIT    828.78     0  02:10      1.06    0.78    1.00
  YS02001767YS02001765 CONDUIT    828.57     0  02:10      1.05    1.04    1.00
  YS02001770YS02001767 CONDUIT    827.60     0  02:10      1.05    3.28    1.00
  YS02001774YS02001770 CONDUIT    848.35     0  02:03      1.08    0.54    1.00
  YS02001779YS02001774 CONDUIT    848.39     0  02:03      1.08    0.43    1.00
  YS02001783YS02001784 CONDUIT   1168.14     0  02:01      2.32    1.61    1.00
  YS02001784YS02001785 CONDUIT   1169.58     0  02:01      2.33    2.72    1.00
  YS02001786YS02001788 CONDUIT   1169.25     0  02:01      2.49    2.25    0.89
  YS02001788YS02001790 CONDUIT   1179.15     0  02:01      2.72    0.87    0.84
  YS02001790YS02001791 CONDUIT   1292.68     0  02:00      3.44    1.41    0.71
  YS02001791YS02001793 CONDUIT   1256.98     0  02:04      6.78    0.54    0.43
  YS02001793JiankangQianchi CONDUIT   1359.32     0  02:24     21.95    0.11    0.50
  YS02001882YS02001884 CONDUIT     33.49     0  01:49      0.17    0.04    1.00
  YS02001884YS02001887 CONDUIT     43.19     0  01:48      0.13    0.06    1.00
  YS02001887YS02001890 CONDUIT   1076.29     0  02:01      1.37    1.84    1.00
  YS02001890YS02001895 CONDUIT    519.87     0  02:06      0.66    0.24    1.00
  YS02001895YS02001898 CONDUIT    519.21     0  02:06      0.66    0.90    1.00
  YS02001898YS02001901 CONDUIT    518.09     0  02:06      0.66    0.33    1.00
  YS02001901YS02001904 CONDUIT    518.31     0  02:06      0.66    0.80    1.00
  YS02001904YS02001907 CONDUIT    519.81     0  02:06      0.66    0.18    1.00
  YS02001907YS02006553 CONDUIT    794.11     0  02:25      0.88    0.93    1.00
  YS02001910YS02001907 CONDUIT   1906.77     0  02:02      2.43    1.07    1.00
  YS02001915YS02001910 CONDUIT   1906.58     0  02:02      2.43    0.95    1.00
  YS02001918YS02001915 CONDUIT    634.40     0  02:03      0.81    0.35    1.00
  YS02001920YS02001918 CONDUIT    634.01     0  02:03      0.81    0.61    1.00
  YS02001923YS02001920 CONDUIT    631.74     0  02:03      0.80    0.28    1.00
  YS02001926YS02001923 CONDUIT    631.19     0  02:03      0.94    0.90    1.00
  YS02001929YS02001926 CONDUIT    630.75     0  02:03      1.08    0.30    1.00
  YS02006553YS02006556 CONDUIT    794.28     0  02:25      1.01    0.68    1.00
  YS02006556YS02006558 CONDUIT    795.81     0  02:25      1.01    0.63    1.00
  YS02006558YS02006561 CONDUIT   1168.03     0  02:01      4.13    2.58    1.00
  YS02006561YS02001783 CONDUIT   1168.10     0  02:01      2.32    0.60    1.00
  YS02163301YS02001633 CONDUIT    927.86     0  01:51      1.18    0.87    1.00
  YS02163601YS02164001 CONDUIT   1365.00     0  01:51      1.74    1.21    1.00
  YS02164001YS02001641 CONDUIT   1363.92     0  01:51      1.74    1.86    1.00
  CC-R1                PUMP       683.00     0  00:00              1.00
  CC-R2                PUMP       683.00     0  00:00              1.00
  CC-S1                PUMP       200.00     0  00:00              1.00
  CC-S2                PUMP       200.00     0  00:00              1.00
  JK-R1                PUMP      1000.00     0  00:00              1.00
  JK-R2                PUMP      1000.00     0  00:00              1.00
  JK-S                 PUMP       300.00     0  00:00              1.00
  
  
  ***************************
  Flow Classification Summary
  ***************************
  
  -------------------------------------------------------------------------------------
                      Adjusted    ---------- Fraction of Time in Flow Class ---------- 
                       /Actual         Up    Down  Sub   Sup   Up    Down  Norm  Inlet 
  Conduit               Length    Dry  Dry   Dry   Crit  Crit  Crit  Crit  Ltd   Ctrl  
  -------------------------------------------------------------------------------------
  1                       1.00   0.00  0.00  0.00  0.00  1.00  0.00  0.00  0.35  0.00
  WS02003060WS02003069    1.00   0.00  0.00  0.00  0.97  0.03  0.00  0.00  0.67  0.00
  WS02003066WSF200        1.00   0.05  0.00  0.00  0.00  0.95  0.00  0.00  0.81  0.00
  WS02003067WS02003066    1.00   0.05  0.00  0.00  0.95  0.00  0.00  0.00  0.00  0.00
  WS02003069WS02003072    1.00   0.00  0.00  0.00  0.99  0.01  0.00  0.00  0.69  0.00
  WS02003072WS02003073    1.00   0.00  0.00  0.00  0.00  0.00  0.00  1.00  0.00  0.00
  WS02004401WS02004402    1.00   0.02  0.00  0.00  0.98  0.00  0.00  0.00  0.00  0.00
  WS02004402WS02004403    1.00   0.02  0.00  0.00  0.98  0.00  0.00  0.00  0.00  0.00
  WS02004403WS02004404    1.00   0.00  0.03  0.00  0.97  0.00  0.00  0.00  0.00  0.00
  WS02004404WS02004405    1.00   0.00  0.00  0.00  1.00  0.00  0.00  0.00  0.01  0.00
  WS02004405WS02004406    1.00   0.00  0.00  0.00  1.00  0.00  0.00  0.00  0.00  0.00
  WS02004406WS02004407    1.00   0.00  0.03  0.00  0.97  0.00  0.00  0.00  0.00  0.00
  WS02004407WS02004409    1.00   0.03  0.00  0.00  0.95  0.01  0.00  0.00  0.95  0.00
  WS02004409WS02004410    1.00   0.03  0.00  0.00  0.96  0.00  0.00  0.00  0.00  0.00
  WS02004410WS02004411    1.00   0.04  0.00  0.00  0.96  0.00  0.00  0.00  0.00  0.00
  WS02004411WS02004412    1.00   0.04  0.00  0.00  0.96  0.00  0.00  0.00  0.00  0.00
  WS02004412WS02004413    1.00   0.04  0.00  0.00  0.96  0.00  0.00  0.00  0.00  0.00
  WS02004413WS02003067    1.00   0.04  0.01  0.00  0.00  0.00  0.95  0.00  0.00  0.00
  WS02006109WS02006110    1.00   0.00  0.01  0.00  0.98  0.00  0.01  0.00  0.00  0.00
  WS02006110WS02006113    1.00   0.01  0.01  0.00  0.98  0.00  0.00  0.00  0.00  0.00
  WS02006111WS02006112    1.00   0.02  0.00  0.00  0.98  0.00  0.00  0.00  0.98  0.00
  WS02006112WS02006115    1.00   0.02  0.00  0.00  0.97  0.00  0.00  0.00  0.00  0.00
  WS02006113WS02006111    1.00   0.02  0.00  0.00  0.00  0.98  0.00  0.00  0.15  0.00
  WS02006115WS02006116    1.00   0.02  0.00  0.00  0.97  0.00  0.00  0.01  0.00  0.00
  WS02006116WS02004401    1.00   0.02  0.00  0.00  0.98  0.00  0.00  0.00  0.00  0.00
  WS02006228WS02006109    1.00   0.00  0.00  0.00  1.00  0.00  0.00  0.00  0.00  0.00
  WS02006229WS02006228    1.00   0.00  0.00  0.00  0.99  0.00  0.00  0.01  0.00  0.00
  WS02006230WS02006229    1.00   0.00  0.00  0.00  0.99  0.00  0.00  0.01  0.03  0.00
  WS02006231WS02006230    1.00   0.00  0.00  0.00  0.32  0.00  0.68  0.00  0.00  0.00
  WS02006232WS02006231    1.00   0.00  0.00  0.00  0.98  0.00  0.02  0.00  0.00  0.00
  WS02006234WS02006232    1.00   0.00  0.00  0.00  1.00  0.00  0.00  0.00  0.04  0.00
  WS02006235WS02006234    1.00   0.00  0.00  0.00  0.93  0.00  0.07  0.00  0.00  0.00
  WS02006238WS02006235    1.00   0.00  0.00  0.00  1.00  0.00  0.00  0.00  0.00  0.00
  WS02006239WS02006238    1.00   0.00  0.00  0.00  1.00  0.00  0.00  0.00  0.24  0.00
  WS02006240WS02006239    1.00   0.00  0.00  0.00  0.66  0.00  0.00  0.34  0.05  0.00
  WS02006242WS02006240    1.00   0.00  0.00  0.00  0.99  0.00  0.01  0.00  0.02  0.00
  WS02006243WS02006242    1.00   0.00  0.00  0.00  0.99  0.00  0.00  0.01  0.56  0.00
  WS02006245WS02006243    1.00   0.00  0.00  0.00  0.60  0.00  0.00  0.40  0.02  0.00
  WS02006247WS02006245    1.00   0.00  0.00  0.00  0.99  0.00  0.00  0.01  0.00  0.00
  WS02006248WS02006247    1.00   0.00  0.00  0.00  0.99  0.00  0.00  0.01  0.21  0.00
  WS02006249WS02006248    1.00   0.00  0.00  0.00  0.42  0.00  0.58  0.00  0.00  0.00
  WS02006251WS02006249    1.00   0.00  0.00  0.00  1.00  0.00  0.00  0.00  0.59  0.00
  WS02006252WS02006251    1.00   0.00  0.60  0.00  0.22  0.00  0.19  0.00  0.00  0.00
  WS02006256WS02006235    1.00   0.00  0.00  0.00  0.98  0.02  0.00  0.00  0.00  0.00
  WSF200WS02003060        1.00   0.00  0.05  0.00  0.35  0.60  0.00  0.00  0.62  0.00
  YS02001580YS02001583    1.00   0.22  0.54  0.00  0.24  0.00  0.00  0.00  0.64  0.00
  YS02001583YS02001586    1.00   0.40  0.31  0.00  0.29  0.00  0.00  0.00  0.64  0.00
  YS02001586YS02001590    1.00   0.13  0.00  0.00  0.46  0.04  0.00  0.37  0.35  0.00
  YS02001590YS02001593    1.00   0.13  0.01  0.00  0.16  0.00  0.70  0.00  0.00  0.00
  YS02001593YS02001596    1.00   0.13  0.00  0.00  0.19  0.01  0.00  0.67  0.02  0.00
  YS02001596YS02001600    1.00   0.13  0.00  0.00  0.24  0.01  0.00  0.61  0.04  0.00
  YS02001600YS02001601    1.00   0.13  0.01  0.00  0.86  0.00  0.00  0.00  0.57  0.00
  YS02001601YS02001602    1.00   0.13  0.01  0.00  0.87  0.00  0.00  0.00  0.00  0.00
  YS02001602YS02001605    1.00   0.13  0.00  0.00  0.87  0.00  0.00  0.00  0.00  0.00
  YS02001605YS02001607    1.00   0.13  0.00  0.00  0.87  0.00  0.00  0.00  0.00  0.00
  YS02001607YS02001610    1.00   0.13  0.00  0.00  0.86  0.00  0.00  0.00  0.01  0.00
  YS02001610YS02001613    1.00   0.13  0.00  0.00  0.87  0.00  0.00  0.00  0.00  0.00
  YS02001613YS02001616    1.00   0.13  0.00  0.00  0.87  0.00  0.00  0.00  0.00  0.00
  YS02001616YS02001619    1.00   0.13  0.00  0.00  0.87  0.00  0.00  0.00  0.00  0.00
  YS02001619YS02001622    1.00   0.13  0.00  0.00  0.87  0.00  0.00  0.00  0.26  0.00
  YS02001622YS02001625    1.00   0.13  0.00  0.00  0.87  0.00  0.00  0.00  0.03  0.00
  YS02001625YS02001629    1.00   0.13  0.04  0.00  0.20  0.00  0.63  0.00  0.00  0.00
  YS02001629YS02163301    1.00   0.14  0.01  0.00  0.85  0.00  0.00  0.00  0.00  0.00
  YS02001633YS02163601    1.00   0.00  0.01  0.00  0.99  0.00  0.00  0.00  0.14  0.00
  YS02001641YS02001644    1.00   0.00  0.01  0.00  0.99  0.00  0.00  0.00  0.00  0.00
  YS02001644YS02001647    1.00   0.00  0.16  0.00  0.84  0.00  0.00  0.00  0.00  0.00
  YS02001647YS02001649    1.00   0.00  0.16  0.00  0.54  0.30  0.00  0.00  0.55  0.00
  YS02001649YS02001757    1.00   0.00  0.00  0.00  0.81  0.19  0.00  0.00  0.61  0.00
  YS02001652YS02001649    1.00   0.00  0.00  0.00  0.97  0.03  0.00  0.00  0.71  0.00
  YS02001655YS02001652    1.00   0.00  0.00  0.00  0.22  0.01  0.00  0.76  0.07  0.00
  YS02001658YS02001655    1.00   0.00  0.14  0.00  0.66  0.20  0.00  0.00  0.67  0.00
  YS02001661YS02001658    1.00   0.14  0.00  0.00  0.49  0.38  0.00  0.00  0.70  0.00
  YS02001664YS02001661    1.00   0.13  0.00  0.00  0.71  0.16  0.00  0.00  0.84  0.00
  YS02001745YS02001748    1.00   0.00  0.00  0.00  0.09  0.02  0.00  0.89  0.06  0.00
  YS02001748YS02001751    1.00   0.00  0.00  0.00  0.81  0.19  0.00  0.00  0.77  0.00
  YS02001751YS02001754    1.00   0.00  0.00  0.00  0.18  0.01  0.00  0.81  0.04  0.00
  YS02001754YS02001757    1.00   0.00  0.00  0.00  1.00  0.00  0.00  0.00  0.80  0.00
  YS02001757CaochengTiaoxuchi    1.00   0.00  0.00  0.00  0.30  0.70  0.00  0.00  0.26  0.00
  YS02001759YS02001757    1.00   0.00  0.00  0.00  1.00  0.00  0.00  0.00  0.62  0.00
  YS02001762YS02001759    1.00   0.00  0.00  0.00  1.00  0.00  0.00  0.00  0.05  0.00
  YS02001765YS02001762    1.00   0.00  0.00  0.00  1.00  0.00  0.00  0.00  0.70  0.00
  YS02001767YS02001765    1.00   0.00  0.00  0.00  1.00  0.00  0.00  0.00  0.00  0.00
  YS02001770YS02001767    1.00   0.00  0.00  0.00  1.00  0.00  0.00  0.00  0.00  0.00
  YS02001774YS02001770    1.00   0.00  0.13  0.00  0.72  0.00  0.15  0.00  0.02  0.00
  YS02001779YS02001774    1.00   0.00  0.00  0.00  1.00  0.00  0.00  0.00  0.76  0.00
  YS02001783YS02001784    1.00   0.00  0.17  0.00  0.83  0.00  0.00  0.00  0.54  0.00
  YS02001784YS02001785    1.00   0.00  0.00  0.00  1.00  0.00  0.00  0.00  0.15  0.00
  YS02001786YS02001788    1.00   0.00  0.00  0.00  0.79  0.21  0.00  0.00  0.00  0.00
  YS02001788YS02001790    1.00   0.00  0.00  0.00  0.21  0.79  0.00  0.00  0.77  0.00
  YS02001790YS02001791    1.00   0.00  0.00  0.00  0.01  0.99  0.00  0.00  0.16  0.00
  YS02001791YS02001793    1.00   0.00  0.00  0.00  0.00  1.00  0.00  0.00  0.01  0.00
  YS02001793JiankangQianchi    1.00   0.00  0.00  0.00  0.42  0.58  0.00  0.00  0.83  0.00
  YS02001882YS02001884    1.00   0.15  0.01  0.00  0.85  0.00  0.00  0.00  0.00  0.00
  YS02001884YS02001887    1.00   0.06  0.05  0.00  0.89  0.00  0.00  0.00  0.00  0.00
  YS02001887YS02001890    1.00   0.00  0.00  0.00  0.97  0.00  0.03  0.00  0.00  0.00
  YS02001890YS02001895    1.00   0.00  0.15  0.00  0.85  0.00  0.00  0.00  0.00  0.00
  YS02001895YS02001898    1.00   0.15  0.00  0.00  0.83  0.00  0.01  0.00  0.00  0.00
  YS02001898YS02001901    1.00   0.16  0.00  0.00  0.84  0.00  0.00  0.00  0.01  0.00
  YS02001901YS02001904    1.00   0.16  0.00  0.00  0.84  0.00  0.00  0.00  0.00  0.00
  YS02001904YS02001907    1.00   0.00  0.15  0.00  0.84  0.00  0.00  0.00  0.00  0.00
  YS02001907YS02006553    1.00   0.00  0.02  0.00  0.98  0.00  0.00  0.00  0.00  0.00
  YS02001910YS02001907    1.00   0.00  0.00  0.00  0.97  0.00  0.00  0.03  0.12  0.00
  YS02001915YS02001910    1.00   0.00  0.00  0.00  0.97  0.03  0.00  0.00  0.13  0.00
  YS02001918YS02001915    1.00   0.00  0.01  0.00  0.98  0.02  0.00  0.00  0.69  0.00
  YS02001920YS02001918    1.00   0.00  0.01  0.00  0.99  0.00  0.00  0.00  0.00  0.00
  YS02001923YS02001920    1.00   0.00  0.00  0.00  1.00  0.00  0.00  0.00  0.89  0.00
  YS02001926YS02001923    1.00   0.00  0.07  0.00  0.09  0.00  0.83  0.00  0.00  0.00
  YS02001929YS02001926    1.00   0.00  0.13  0.00  0.87  0.00  0.00  0.00  0.79  0.00
  YS02006553YS02006556    1.00   0.01  0.00  0.00  0.99  0.00  0.00  0.00  0.03  0.00
  YS02006556YS02006558    1.00   0.00  0.00  0.00  1.00  0.00  0.00  0.00  0.00  0.00
  YS02006558YS02006561    1.00   0.16  0.00  0.00  0.09  0.75  0.00  0.00  0.17  0.00
  YS02006561YS02001783    1.00   0.16  0.00  0.00  0.13  0.71  0.00  0.00  0.64  0.00
  YS02163301YS02001633    1.00   0.00  0.14  0.00  0.86  0.00  0.00  0.00  0.00  0.00
  YS02163601YS02164001    1.00   0.00  0.08  0.00  0.92  0.00  0.00  0.00  0.00  0.00
  YS02164001YS02001641    1.00   0.01  0.08  0.00  0.92  0.00  0.00  0.00  0.05  0.00
  
  
  *************************
  Conduit Surcharge Summary
  *************************
  
  ----------------------------------------------------------------------------
                                                           Hours        Hours 
                         --------- Hours Full --------   Above Full   Capacity
  Conduit                Both Ends  Upstream  Dnstream   Normal Flow   Limited
  ----------------------------------------------------------------------------
  WS02003072WS02003073        0.01      0.01      0.01      2.02         0.01
  WS02004403WS02004404        0.01      0.01      0.01      0.01         0.01
  WS02004404WS02004405        0.01      0.01      0.01      3.41         0.01
  WS02004405WS02004406        0.01      0.01      0.01      1.24         0.01
  WS02006109WS02006110        0.49      0.49      2.45      0.81         0.01
  WS02006110WS02006113        0.01      0.01      2.44      0.01         0.01
  WS02006111WS02006112        0.01      0.01      2.50      0.01         0.01
  WS02006112WS02006115        0.01      0.01      1.64      0.01         0.01
  WS02006228WS02006109        2.39      2.45      2.39      2.78         2.39
  WS02006229WS02006228        2.37      2.40      2.37      2.62         2.35
  WS02006230WS02006229        2.51      2.55      2.51      3.82         2.51
  WS02006231WS02006230        0.57      0.57      1.56      3.40         0.01
  WS02006232WS02006231        1.25      1.25      2.46      1.37         0.01
  WS02006234WS02006232        2.10      2.11      2.46      1.29         1.13
  WS02006235WS02006234        1.72      1.79      2.06      3.22         0.15
  WS02006238WS02006235        2.15      2.15      2.47      0.01         0.08
  WS02006239WS02006238        2.29      2.46      2.29      2.56         1.83
  WS02006240WS02006239        2.29      2.40      2.30      2.57         1.75
  WS02006242WS02006240        2.38      2.38      2.51      2.74         0.05
  WS02006243WS02006242        2.39      2.39      2.48      0.01         0.36
  WS02006245WS02006243        2.37      2.38      2.38      2.24         1.51
  WS02006247WS02006245        2.37      2.41      2.37      2.87         2.18
  WS02006248WS02006247        2.37      2.37      2.39      0.01         0.43
  WS02006249WS02006248        2.35      2.36      2.38      2.86         0.01
  WS02006251WS02006249        2.37      2.40      2.38      2.79         2.08
  WS02006252WS02006251        2.87      2.87      2.87      2.87         0.01
  WS02006256WS02006235        3.02      3.30      5.60      1.77         0.02
  YS02001580YS02001583        0.93      0.94      0.96      0.01         0.01
  YS02001583YS02001586        0.94      0.94      1.06      0.01         0.01
  YS02001586YS02001590        1.07      1.07      1.16      0.01         0.01
  YS02001590YS02001593        1.16      1.16      1.18      1.24         0.01
  YS02001593YS02001596        1.17      1.17      1.30      0.01         0.01
  YS02001596YS02001600        1.37      1.37      1.47      0.01         0.01
  YS02001600YS02001601        1.52      1.52      1.76      0.01         0.01
  YS02001601YS02001602        1.67      1.67      1.80      1.50         0.01
  YS02001602YS02001605        1.62      1.62      1.67      2.51         0.01
  YS02001605YS02001607        1.58      1.62      1.58      1.73         1.58
  YS02001607YS02001610        1.08      1.08      1.12      0.01         0.01
  YS02001610YS02001613        1.07      1.07      1.12      0.01         0.01
  YS02001613YS02001616        1.02      1.02      1.07      0.01         0.01
  YS02001616YS02001619        1.00      1.00      1.02      0.11         0.08
  YS02001619YS02001622        0.99      1.00      0.99      1.21         0.97
  YS02001622YS02001625        0.99      0.99      1.24      0.01         0.01
  YS02001625YS02001629        0.88      0.88      1.24      0.01         0.01
  YS02001629YS02163301        1.21      1.21      1.22      0.49         0.45
  YS02001633YS02163601        1.25      1.25      1.28      0.69         0.68
  YS02001641YS02001644        1.05      1.11      1.05      1.81         1.04
  YS02001644YS02001647        0.74      0.74      1.05      0.04         0.01
  YS02001647YS02001649        0.74      0.74      0.85      0.01         0.01
  YS02001649YS02001757        0.84      0.85      0.89      0.56         0.47
  YS02001652YS02001649        0.64      0.64      0.85      0.01         0.01
  YS02001655YS02001652        0.43      0.43      0.60      0.01         0.01
  YS02001658YS02001655        0.30      0.30      0.43      0.01         0.01
  YS02001661YS02001658        0.11      0.11      0.30      0.01         0.01
  YS02001664YS02001661        0.01      0.01      0.16      0.01         0.01
  YS02001745YS02001748        0.01      0.01      0.19      0.01         0.01
  YS02001748YS02001751        0.25      0.25      0.32      0.01         0.01
  YS02001751YS02001754        0.32      0.32      0.44      0.01         0.01
  YS02001754YS02001757        0.49      0.49      0.89      0.01         0.01
  YS02001757CaochengTiaoxuchi        0.47      0.89      0.98      0.69         0.21
  YS02001759YS02001757        0.76      0.76      0.89      0.13         0.14
  YS02001762YS02001759        0.72      0.72      0.76      0.01         0.04
  YS02001765YS02001762        0.67      0.67      0.72      0.01         0.01
  YS02001767YS02001765        0.63      0.63      0.67      0.02         0.07
  YS02001770YS02001767        0.63      0.64      0.63      0.81         0.57
  YS02001774YS02001770        0.60      0.60      0.71      0.01         0.01
  YS02001779YS02001774        0.47      0.47      0.71      0.01         0.01
  YS02001783YS02001784        0.76      0.79      0.76      1.00         0.76
  YS02001784YS02001785        0.62      0.76      0.62      1.34         0.62
  YS02001786YS02001788        0.01      0.62      0.01      1.14         0.01
  YS02001790YS02001791        0.01      0.01      0.01      0.74         0.01
  YS02001882YS02001884        0.71      0.71      0.73      0.01         0.01
  YS02001884YS02001887        0.76      0.76      0.78      0.01         0.01
  YS02001887YS02001890        0.80      0.80      0.81      0.21         0.01
  YS02001890YS02001895        0.70      0.70      0.83      0.01         0.01
  YS02001895YS02001898        0.69      0.69      0.70      0.01         0.01
  YS02001898YS02001901        0.71      0.71      0.76      0.01         0.01
  YS02001901YS02001904        0.75      0.75      0.76      0.01         0.01
  YS02001904YS02001907        0.74      0.74      1.12      0.01         0.01
  YS02001907YS02006553        1.36      1.36      1.45      0.01         0.01
  YS02001910YS02001907        0.83      0.83      1.08      0.07         0.07
  YS02001915YS02001910        0.71      0.71      0.83      0.01         0.01
  YS02001918YS02001915        0.61      0.61      0.71      0.01         0.01
  YS02001920YS02001918        0.61      0.61      0.62      0.01         0.01
  YS02001923YS02001920        0.56      0.56      0.62      0.01         0.01
  YS02001926YS02001923        0.22      0.22      0.27      0.01         0.01
  YS02001929YS02001926        0.09      0.09      0.27      0.01         0.01
  YS02006553YS02006556        0.95      0.95      1.11      0.01         0.01
  YS02006556YS02006558        1.03      1.03      1.15      0.01         0.01
  YS02006558YS02006561        0.65      0.94      0.65      1.27         0.65
  YS02006561YS02001783        0.57      0.57      0.79      0.01         0.01
  YS02163301YS02001633        1.22      1.22      1.27      0.01         0.01
  YS02163601YS02164001        1.13      1.13      1.28      0.33         0.01
  YS02164001YS02001641        1.11      1.13      1.11      1.03         0.84
  
  
  ***************
  Pumping Summary
  ***************
  
  ---------------------------------------------------------------------------------------------------------
                                                  Min       Avg       Max     Total     Power    % Time Off
                        Percent   Number of      Flow      Flow      Flow    Volume     Usage    Pump Curve
  Pump                 Utilized   Start-Ups       LPS       LPS       LPS  10^6 ltr     Kw-hr    Low   High
  ---------------------------------------------------------------------------------------------------------
  CC-R1                   31.71           3      0.00    683.00    683.00     6.173    105.06    0.0   60.9
  CC-R2                   31.71           3      0.00    683.00    683.00     6.173    105.06    0.0   60.9
  CC-S1                   36.29           5      0.00    200.00    200.00     2.068     15.27    0.0   33.1
  CC-S2                   36.29           5      0.00    200.00    200.00     2.068     15.27    0.0   33.1
  JK-R1                    6.41          89      0.00    999.66   1000.00     1.826      5.26    0.0    0.0
  JK-R2                    6.41          89      0.00    999.66   1000.00     1.826      5.26    0.0    0.0
  JK-S                    22.06         117      0.00    299.90    300.00     1.885     42.33    0.0    0.0
  

  Analysis begun on:  Thu Jan 16 14:27:58 2025
  Analysis ended on:  Thu Jan 16 14:27:59 2025
  Total elapsed time: 00:00:01