
  EPA STORM WATER MANAGEMENT MODEL - VERSION 5.2 (Build 5.2.4)
  PYSWMM TOOLKIT API - VERSION v1.0 (2023-11-27)
  ------------------------------------------------------------

  WARNING 04: minimum elevation drop used for Conduit WS02004404WS02004405
  WARNING 03: negative offset ignored for Link YS02001904YS02001907
  
  ****************
  Analysis Options
  ****************
  Flow Units ............... LPS
  Process Models:
    Rainfall/Runoff ........ YES
    RDII ................... NO
    Snowmelt ............... NO
    Groundwater ............ NO
    Flow Routing ........... YES
    Ponding Allowed ........ NO
    Water Quality .......... NO
  Infiltration Method ...... HORTON
  Flow Routing Method ...... DYNWAVE
  Surcharge Method ......... EXTRAN
  Starting Date ............ 08/28/2015 08:00:00
  Ending Date .............. 08/28/2015 16:00:00
  Antecedent Dry Days ...... 8.0
  Report Time Step ......... 00:01:00
  Wet Time Step ............ 00:01:00
  Dry Time Step ............ 00:01:00
  Routing Time Step ........ 30.00 sec
  Variable Time Step ....... YES
  Maximum Trials ........... 8
  Number of Threads ........ 4
  Head Tolerance ........... 0.001500 m
  
  
  **************************        Volume         Depth
  Runoff Quantity Continuity     hectare-m            mm
  **************************     ---------       -------
  Total Precipitation ......         2.375        71.587
  Evaporation Loss .........         0.000         0.000
  Infiltration Loss ........         0.101         3.041
  Surface Runoff ...........         2.241        67.563
  Final Storage ............         0.033         0.997
  Continuity Error (%) .....        -0.020
  
  
  **************************        Volume        Volume
  Flow Routing Continuity        hectare-m      10^6 ltr
  **************************     ---------     ---------
  Dry Weather Inflow .......         0.025         0.248
  Wet Weather Inflow .......         2.241        22.407
  Groundwater Inflow .......         0.000         0.000
  RDII Inflow ..............         0.000         0.000
  External Inflow ..........         0.083         0.825
  External Outflow .........         1.838        18.380
  Flooding Loss ............         0.723         7.228
  Evaporation Loss .........         0.000         0.000
  Exfiltration Loss ........         0.000         0.000
  Initial Stored Volume ....         0.243         2.431
  Final Stored Volume ......         0.045         0.454
  Continuity Error (%) .....        -0.581
  
  
  *************************
  Highest Continuity Errors
  *************************
  Node YS02001884 (5.27%)
  Node YS02001583 (-4.10%)
  Node WS02006256 (-3.52%)
  Node JK-storage (-1.58%)
  
  
  ***************************
  Time-Step Critical Elements
  ***************************
  Link WS02006238WS02006235 (31.94%)
  Link WS02004404WS02004405 (22.29%)
  Link WS02003066WSF200 (13.19%)
  Link YS02001793JiankangQianchi (7.89%)
  Link YS02001791YS02001793 (5.35%)
  
  
  ********************************
  Highest Flow Instability Indexes
  ********************************
  Link WS02006113WS02006111 (37)
  Link WS02006252WS02006251 (27)
  Link WS02004404WS02004405 (27)
  Link WS02004403WS02004404 (24)
  Link WS02006256WS02006235 (22)
  
  
  *********************************
  Most Frequent Nonconverging Nodes
  *********************************
  Node CC-1 (32.86%)
  Node CC-2 (32.86%)
  Node JK-1 (32.86%)
  Node JK-2 (32.86%)
  Node WSC (32.86%)
  
  
  *************************
  Routing Time Step Summary
  *************************
  Minimum Time Step           :     0.00 sec
  Average Time Step           :     2.81 sec
  Maximum Time Step           :     6.43 sec
  % of Time in Steady State   :     0.00
  Average Iterations per Step :     4.40
  % of Steps Not Converging   :    32.86
  Time Step Frequencies       :
     30.000 - 13.228 sec      :     0.00 %
     13.228 -  5.833 sec      :    13.12 %
      5.833 -  2.572 sec      :    29.81 %
      2.572 -  1.134 sec      :    40.59 %
      1.134 -  0.500 sec      :    16.48 %
  
  
  ***************************
  Subcatchment Runoff Summary
  ***************************
  
  ------------------------------------------------------------------------------------------------------------------------------
                            Total      Total      Total      Total     Imperv       Perv      Total       Total     Peak  Runoff
                           Precip      Runon       Evap      Infil     Runoff     Runoff     Runoff      Runoff   Runoff   Coeff
  Subcatchment                 mm         mm         mm         mm         mm         mm         mm    10^6 ltr      LPS
  ------------------------------------------------------------------------------------------------------------------------------
  sub60                     71.59       0.00       0.00       1.83      61.79       6.76      68.56        0.90   589.32   0.958
  sub61                     71.59       0.00       0.00       2.65      58.29       9.52      67.81        1.24   818.09   0.947
  sub62                     71.59       0.00       0.00       1.22      64.57       4.51      69.08        1.89  1157.39   0.965
  sub63                     71.59       0.00       0.00       4.88      49.86      15.88      65.74        1.49   926.24   0.918
  sub64                     71.59       0.00       0.00       2.47      59.64       8.27      67.91        1.63   944.87   0.949
  sub65                     71.59       0.00       0.00       2.14      61.03       7.17      68.20        1.88  1059.50   0.953
  sub66                     71.59       0.00       0.00       6.05      49.75      14.71      64.46        3.01  1403.05   0.900
  sub67                     71.59       0.00       0.00       1.17      64.62       4.56      69.17        1.29   881.49   0.966
  sub68                     71.59       0.00       0.00       2.19      60.38       7.83      68.21        1.88  1186.32   0.953
  sub69                     71.59       0.00       0.00       1.96      60.74       8.78      69.52        2.57  1410.10   0.971
  sub70                     71.59       0.00       0.00       6.54      47.08      17.80      64.88        1.87   789.71   0.906
  sub71                     71.59       0.00       0.00       1.25      64.53       4.48      69.01        1.80  1022.88   0.964
  sub72                     71.59       0.00       0.00       1.11      65.17       3.90      69.07        0.95   498.77   0.965
  
  
  ******************
  Node Depth Summary
  ******************
  
  ---------------------------------------------------------------------------------
                                 Average  Maximum  Maximum  Time of Max    Reported
                                   Depth    Depth      HGL   Occurrence   Max Depth
  Node                 Type       Meters   Meters   Meters  days hr:min      Meters
  ---------------------------------------------------------------------------------
  WS02003060           JUNCTION     0.24     0.38     5.32     0  03:11        0.38
  WS02003066           JUNCTION     0.19     0.30     5.85     0  03:10        0.30
  WS02003067           JUNCTION     0.50     0.70     6.02     0  03:10        0.70
  WS02003069           JUNCTION     0.26     0.43     5.01     0  03:11        0.43
  WS02003072           JUNCTION     0.32     0.50     4.87     0  03:12        0.50
  WS02003073           JUNCTION     0.18     0.30     4.36     0  03:12        0.30
  WS02004401           JUNCTION     0.61     0.88     6.88     0  03:08        0.88
  WS02004402           JUNCTION     0.64     0.90     6.86     0  03:08        0.90
  WS02004403           JUNCTION     0.65     0.92     6.85     0  03:07        0.92
  WS02004404           JUNCTION     0.73     1.01     6.86     0  03:06        1.00
  WS02004405           JUNCTION     0.71     0.97     6.82     0  03:03        0.96
  WS02004406           JUNCTION     0.72     0.96     6.79     0  03:07        0.96
  WS02004407           JUNCTION     0.18     0.30     6.61     0  03:09        0.30
  WS02004409           JUNCTION     0.40     0.67     6.44     0  03:09        0.67
  WS02004410           JUNCTION     0.42     0.68     6.40     0  03:09        0.68
  WS02004411           JUNCTION     0.44     0.69     6.37     0  03:10        0.69
  WS02004412           JUNCTION     0.46     0.70     6.34     0  03:10        0.70
  WS02004413           JUNCTION     0.61     0.86     6.33     0  03:10        0.86
  WS02006109           JUNCTION     0.68     1.23     7.85     0  02:44        1.02
  WS02006110           JUNCTION     0.67     1.25     7.84     0  01:53        0.96
  WS02006111           JUNCTION     0.18     0.29     7.00     0  02:52        0.29
  WS02006112           JUNCTION     0.77     1.12     7.00     0  03:18        1.08
  WS02006113           JUNCTION     0.28     0.46     7.35     0  02:52        0.46
  WS02006115           JUNCTION     0.50     0.77     6.91     0  03:08        0.77
  WS02006116           JUNCTION     0.58     0.85     6.89     0  03:07        0.85
  WS02006228           JUNCTION     0.68     1.48     8.13     0  02:44        1.16
  WS02006229           JUNCTION     0.66     1.55     8.24     0  02:44        1.20
  WS02006230           JUNCTION     0.68     1.92     8.67     0  02:44        1.33
  WS02006231           JUNCTION     0.47     2.24     9.36     0  02:20        1.06
  WS02006232           JUNCTION     0.61     2.03     9.07     0  02:21        1.80
  WS02006234           JUNCTION     0.55     1.96     9.12     0  01:53        1.96
  WS02006235           JUNCTION     0.59     2.00     9.16     0  01:53        2.00
  WS02006238           JUNCTION     0.62     2.15     9.29     0  01:53        2.15
  WS02006239           JUNCTION     0.59     2.03     9.24     0  01:53        2.03
  WS02006240           JUNCTION     0.56     2.10     9.39     0  01:53        2.10
  WS02006242           JUNCTION     0.63     1.55     8.82     0  01:47        1.55
  WS02006243           JUNCTION     0.56     1.48     8.90     0  01:53        1.48
  WS02006245           JUNCTION     0.56     1.56     9.04     0  03:09        1.56
  WS02006247           JUNCTION     0.57     1.47     8.97     0  03:09        1.47
  WS02006248           JUNCTION     0.54     1.10     8.69     0  01:39        1.10
  WS02006249           JUNCTION     0.57     1.09     8.69     0  01:39        1.09
  WS02006251           JUNCTION     0.57     1.35     9.02     0  02:39        1.35
  WS02006252           JUNCTION     0.36     1.50     9.74     0  00:00        0.89
  WS02006256           JUNCTION     1.15     2.35     9.28     0  00:00        2.35
  WSF200               JUNCTION     0.17     0.29     5.52     0  03:11        0.29
  YS02001580           JUNCTION     0.16     1.05     9.59     0  01:52        0.78
  YS02001583           JUNCTION     0.19     1.04     9.53     0  01:52        0.82
  YS02001586           JUNCTION     0.30     1.13     9.30     0  01:52        1.13
  YS02001590           JUNCTION     0.41     1.40     9.26     0  01:53        1.37
  YS02001593           JUNCTION     0.34     1.44     9.30     0  01:53        1.29
  YS02001596           JUNCTION     0.47     1.77     9.19     0  01:53        1.67
  YS02001600           JUNCTION     0.56     1.87     9.00     0  01:52        1.86
  YS02001601           JUNCTION     0.75     2.06     8.90     0  01:51        2.06
  YS02001602           JUNCTION     0.64     1.87     8.77     0  01:52        1.87
  YS02001605           JUNCTION     0.59     1.78     8.68     0  01:52        1.78
  YS02001607           JUNCTION     0.55     1.68     8.53     0  01:52        1.68
  YS02001610           JUNCTION     0.59     1.68     8.48     0  01:52        1.68
  YS02001613           JUNCTION     0.55     1.70     8.54     0  01:52        1.70
  YS02001616           JUNCTION     0.48     1.61     8.52     0  01:52        1.61
  YS02001619           JUNCTION     0.46     1.61     8.54     0  01:52        1.61
  YS02001622           JUNCTION     0.45     1.59     8.50     0  01:52        1.57
  YS02001625           JUNCTION     0.69     1.78     8.38     0  01:55        1.78
  YS02001629           JUNCTION     0.58     1.85     8.40     0  01:56        1.85
  YS02001633           JUNCTION     0.65     2.08     8.53     0  01:53        2.08
  YS02001641           JUNCTION     0.61     1.96     8.40     0  01:57        1.94
  YS02001644           JUNCTION     0.60     1.92     8.35     0  01:57        1.92
  YS02001647           JUNCTION     0.37     1.78     8.39     0  01:58        1.75
  YS02001649           JUNCTION     0.41     2.03     8.42     0  01:58        1.98
  YS02001652           JUNCTION     0.29     1.95     8.55     0  01:58        1.82
  YS02001655           JUNCTION     0.21     2.17     9.02     0  01:56        1.61
  YS02001658           JUNCTION     0.16     1.66     8.80     0  01:57        1.36
  YS02001661           JUNCTION     0.18     1.53     8.94     0  01:58        1.14
  YS02001664           JUNCTION     0.08     0.63     8.56     0  01:58        0.62
  YS02001745           JUNCTION     0.09     0.82     8.34     0  01:58        0.80
  YS02001748           JUNCTION     0.14     2.13     9.21     0  01:58        1.22
  YS02001751           JUNCTION     0.16     1.96     8.84     0  01:58        1.42
  YS02001754           JUNCTION     0.23     1.92     8.52     0  01:58        1.68
  YS02001757           JUNCTION     0.41     2.08     8.34     0  01:58        2.03
  YS02001759           JUNCTION     0.35     2.05     8.41     0  02:01        2.05
  YS02001762           JUNCTION     0.34     2.03     8.43     0  02:01        2.03
  YS02001765           JUNCTION     0.32     1.98     8.43     0  01:59        1.98
  YS02001767           JUNCTION     0.31     1.95     8.44     0  01:59        1.95
  YS02001770           JUNCTION     0.33     1.95     8.44     0  01:58        1.95
  YS02001774           JUNCTION     0.39     2.02     8.44     0  01:58        2.00
  YS02001779           JUNCTION     0.22     1.68     8.37     0  01:56        1.68
  YS02001783           JUNCTION     0.34     1.32     7.46     0  01:55        1.23
  YS02001784           JUNCTION     0.34     1.15     7.22     0  01:55        1.12
  YS02001786           JUNCTION     0.28     0.90     6.93     0  01:55        0.89
  YS02001788           JUNCTION     0.21     0.62     6.60     0  02:00        0.62
  YS02001790           JUNCTION     0.24     0.72     6.37     0  02:00        0.72
  YS02001791           JUNCTION     0.15     0.44     5.91     0  01:58        0.43
  YS02001793           JUNCTION     0.08     0.26     5.09     0  02:16        0.25
  YS02001882           JUNCTION     0.42     1.66     8.38     0  01:59        1.66
  YS02001884           JUNCTION     0.50     1.77     8.39     0  02:01        1.77
  YS02001887           JUNCTION     0.58     1.85     8.39     0  02:01        1.85
  YS02001890           JUNCTION     0.60     1.81     8.32     0  01:55        1.81
  YS02001895           JUNCTION     0.39     1.57     8.32     0  02:09        1.56
  YS02001898           JUNCTION     0.39     1.57     8.31     0  01:56        1.56
  YS02001901           JUNCTION     0.50     1.68     8.29     0  02:09        1.67
  YS02001904           JUNCTION     0.48     1.64     8.27     0  01:55        1.64
  YS02001907           JUNCTION     0.78     1.96     8.25     0  01:55        1.96
  YS02001910           JUNCTION     0.60     1.96     8.47     0  01:56        1.93
  YS02001915           JUNCTION     0.43     1.90     8.62     0  01:56        1.85
  YS02001918           JUNCTION     0.26     1.81     8.88     0  01:56        1.50
  YS02001920           JUNCTION     0.34     2.14     9.15     0  01:56        1.57
  YS02001923           JUNCTION     0.20     2.03     9.29     0  01:56        1.35
  YS02001926           JUNCTION     0.22     1.90     9.35     0  01:56        1.18
  YS02001929           JUNCTION     0.14     1.78     9.47     0  01:56        0.95
  YS02006553           JUNCTION     0.78     1.99     8.27     0  01:59        1.99
  YS02006556           JUNCTION     0.76     1.98     8.29     0  01:59        1.98
  YS02006558           JUNCTION     0.80     2.04     8.31     0  02:01        2.04
  YS02006561           JUNCTION     0.21     1.02     7.68     0  01:55        0.90
  YS02163301           JUNCTION     0.60     1.93     8.45     0  01:59        1.93
  YS02163601           JUNCTION     0.68     2.08     8.48     0  01:53        2.08
  YS02164001           JUNCTION     0.60     1.97     8.43     0  01:57        1.95
  CC-1                 OUTFALL      0.00     0.00     0.00     0  00:00        0.00
  CC-2                 OUTFALL      0.00     0.00     0.00     0  00:00        0.00
  JK-1                 OUTFALL      0.00     0.00     0.00     0  00:00        0.00
  JK-2                 OUTFALL      0.00     0.00     0.00     0  00:00        0.00
  WSC                  OUTFALL      0.18     0.30     0.97     0  03:12        0.30
  CC-storage           STORAGE      0.27     0.96     6.46     0  02:36        0.96
  JK-storage           STORAGE      0.14     2.99     3.79     0  00:00        0.68
  
  
  *******************
  Node Inflow Summary
  *******************
  
  -------------------------------------------------------------------------------------------------
                                  Maximum  Maximum                  Lateral       Total        Flow
                                  Lateral    Total  Time of Max      Inflow      Inflow     Balance
                                   Inflow   Inflow   Occurrence      Volume      Volume       Error
  Node                 Type           LPS      LPS  days hr:min    10^6 ltr    10^6 ltr     Percent
  -------------------------------------------------------------------------------------------------
  WS02003060           JUNCTION     16.53   554.15     0  03:11       0.471        5.27       0.037
  WS02003066           JUNCTION      0.00   537.31     0  03:10           0         4.8       0.030
  WS02003067           JUNCTION      0.00   537.30     0  03:10           0         4.8       0.085
  WS02003069           JUNCTION      0.32   553.99     0  03:11     0.00912        5.28       0.073
  WS02003072           JUNCTION      0.00   553.65     0  03:12           0        5.27       0.138
  WS02003073           JUNCTION      1.82   555.30     0  03:12      0.0519        5.32       0.103
  WS02004401           JUNCTION      0.00   540.80     0  03:13           0         4.9       0.209
  WS02004402           JUNCTION      0.00   540.46     0  03:06           0        4.89       0.211
  WS02004403           JUNCTION      0.00   539.20     0  03:03           0        4.88       0.205
  WS02004404           JUNCTION      0.16   552.65     0  03:07     0.00462        4.87       0.144
  WS02004405           JUNCTION      0.04   601.93     0  03:03     0.00109        4.87       0.191
  WS02004406           JUNCTION      0.00   542.69     0  03:07           0        4.86       0.426
  WS02004407           JUNCTION      0.00   538.69     0  03:09           0        4.84       0.019
  WS02004409           JUNCTION      0.00   538.19     0  03:09           0        4.84       0.050
  WS02004410           JUNCTION      0.00   537.85     0  03:09           0        4.83       0.091
  WS02004411           JUNCTION      0.00   537.91     0  03:09           0        4.83       0.114
  WS02004412           JUNCTION      0.00   537.57     0  03:10           0        4.82       0.152
  WS02004413           JUNCTION      0.00   537.73     0  03:10           0        4.82       0.284
  WS02006109           JUNCTION      1.23   568.52     0  01:48      0.0351        4.94       0.066
  WS02006110           JUNCTION      0.00   569.87     0  01:53           0        4.94       0.146
  WS02006111           JUNCTION      0.00   564.07     0  02:52           0        4.93       0.020
  WS02006112           JUNCTION      0.00   544.48     0  02:52           0        4.93       0.411
  WS02006113           JUNCTION      0.00   577.22     0  01:48           0        4.93       0.040
  WS02006115           JUNCTION      0.00   552.54     0  01:48           0        4.91       0.145
  WS02006116           JUNCTION      0.00   539.26     0  02:52           0         4.9      -0.019
  WS02006228           JUNCTION      0.00   566.94     0  01:48           0         4.9       0.004
  WS02006229           JUNCTION      0.00   567.50     0  01:48           0        4.91       0.144
  WS02006230           JUNCTION     10.28   604.40     0  01:40       0.293        4.91      -0.002
  WS02006231           JUNCTION      0.00   612.06     0  01:39           0        4.61      -0.098
  WS02006232           JUNCTION      0.00   610.63     0  01:39           0        4.63       0.413
  WS02006234           JUNCTION      0.00   603.30     0  01:39           0        4.61      -0.462
  WS02006235           JUNCTION      0.00   590.35     0  01:39           0        4.72       0.383
  WS02006238           JUNCTION      0.00   436.90     0  01:39           0        3.57      -0.252
  WS02006239           JUNCTION      0.00   431.92     0  01:39           0         3.5      -0.109
  WS02006240           JUNCTION      0.00   426.15     0  01:39           0        3.45      -0.143
  WS02006242           JUNCTION      0.00   425.85     0  01:39           0        3.43      -0.119
  WS02006243           JUNCTION      0.00   425.01     0  01:39           0        3.42      -0.138
  WS02006245           JUNCTION      0.00   424.42     0  01:39           0        3.44       0.622
  WS02006247           JUNCTION      0.00   424.69     0  01:39           0        3.44      -0.012
  WS02006248           JUNCTION      0.00   424.48     0  01:39           0        3.45       0.156
  WS02006249           JUNCTION      0.00   476.59     0  03:36           0        3.72       0.482
  WS02006251           JUNCTION      0.08   406.47     0  04:02     0.00219        3.72      -0.031
  WS02006252           JUNCTION      0.00   400.00     0  00:00           0        3.71      -0.070
  WS02006256           JUNCTION      0.00   321.97     0  02:19           0        1.78      -3.398
  WSF200               JUNCTION      0.00   537.36     0  03:11           0         4.8       0.008
  YS02001580           JUNCTION      0.00   102.96     0  01:52           0      0.0041      -2.478
  YS02001583           JUNCTION      0.00   152.76     0  01:52           0      0.0153      -3.941
  YS02001586           JUNCTION    789.71   789.74     0  02:04        1.87        1.89       0.066
  YS02001590           JUNCTION      0.00   317.98     0  02:18           0        1.42      -0.028
  YS02001593           JUNCTION      0.00   318.03     0  02:18           0        1.42       0.026
  YS02001596           JUNCTION      0.00   318.00     0  02:04           0        1.42       0.006
  YS02001600           JUNCTION      0.00   318.11     0  02:04           0        1.42       0.023
  YS02001601           JUNCTION   1410.10  1727.47     0  02:03        2.57        3.99       0.021
  YS02001602           JUNCTION      0.00   511.98     0  01:51           0        2.43       0.020
  YS02001605           JUNCTION      0.00   511.77     0  01:51           0        2.33       0.020
  YS02001607           JUNCTION      0.00   512.20     0  01:51           0        2.33       0.090
  YS02001610           JUNCTION      0.00   781.69     0  02:04           0        2.62       0.094
  YS02001613           JUNCTION      0.00   517.67     0  01:51           0        2.15       0.089
  YS02001616           JUNCTION      0.00   511.90     0  02:34           0        2.15       0.022
  YS02001619           JUNCTION   1403.05  1403.05     0  02:04        3.01        4.86       0.002
  YS02001622           JUNCTION      0.00   974.87     0  02:23           0        4.56       0.004
  YS02001625           JUNCTION      0.00  1379.84     0  02:05           0        4.78       0.189
  YS02001629           JUNCTION      0.00   975.77     0  02:23           0        3.91       0.023
  YS02001633           JUNCTION   1059.70  1379.13     0  01:55        1.88        5.53       0.065
  YS02001641           JUNCTION      0.00  1375.97     0  01:55           0        5.28       0.057
  YS02001644           JUNCTION    944.91  1783.81     0  01:55        1.63         6.9       0.049
  YS02001647           JUNCTION      0.00  1782.73     0  01:55           0        6.47       0.006
  YS02001649           JUNCTION      0.00  2033.95     0  01:55           0        7.96       0.006
  YS02001652           JUNCTION      0.00   954.19     0  02:02           0         1.5      -0.055
  YS02001655           JUNCTION      0.15   954.14     0  02:02     0.00439         1.5       0.030
  YS02001658           JUNCTION      0.00   953.91     0  02:02           0        1.49      -0.004
  YS02001661           JUNCTION      0.00   952.88     0  02:02           0        1.49       0.015
  YS02001664           JUNCTION    926.24   926.24     0  02:02        1.49        1.49      -0.006
  YS02001745           JUNCTION    589.32   589.32     0  02:02       0.901       0.901       0.098
  YS02001748           JUNCTION      0.04   601.42     0  02:01     0.00128       0.902      -0.119
  YS02001751           JUNCTION      0.01   601.39     0  02:02    0.000313       0.907       0.057
  YS02001754           JUNCTION      0.26   602.24     0  02:02     0.00741       0.919      -0.072
  YS02001757           JUNCTION      0.00  3409.99     0  02:07           0        11.8       0.037
  YS02001759           JUNCTION    818.13  1394.56     0  02:01        1.25        2.95      -0.001
  YS02001762           JUNCTION      0.00   818.13     0  02:08           0         1.7       0.018
  YS02001765           JUNCTION      0.00   817.50     0  02:08           0         1.7       0.006
  YS02001767           JUNCTION      0.54   817.40     0  02:08      0.0152         1.7       0.012
  YS02001770           JUNCTION   1157.54  1157.54     0  02:02         1.9        1.94      -0.005
  YS02001774           JUNCTION      0.00   602.69     0  02:02           0        0.27       0.494
  YS02001779           JUNCTION      0.01   602.14     0  02:02    0.000142       0.228      -0.110
  YS02001783           JUNCTION      0.00  1166.97     0  01:59           0        4.32       0.006
  YS02001784           JUNCTION      1.06  1167.83     0  01:59      0.0302        4.35       0.012
  YS02001786           JUNCTION      0.06  1168.48     0  02:01      0.0016        4.35       0.017
  YS02001788           JUNCTION      0.07  1168.30     0  02:01     0.00202        4.35       0.006
  YS02001790           JUNCTION      0.15  1177.67     0  02:00     0.00442        4.35       0.011
  YS02001791           JUNCTION      0.00  1287.77     0  02:00           0        4.35      -0.012
  YS02001793           JUNCTION      0.00  1239.05     0  01:56           0        4.35      -0.033
  YS02001882           JUNCTION      0.00    32.42     0  01:53           0      0.0126       5.444
  YS02001884           JUNCTION      0.00    74.70     0  01:53           0      0.0485       5.561
  YS02001887           JUNCTION    881.94   886.95     0  02:01         1.3        1.33       0.336
  YS02001890           JUNCTION      0.00   887.51     0  02:01           0        1.29       0.403
  YS02001895           JUNCTION      0.00   517.84     0  02:03           0        1.16       0.145
  YS02001898           JUNCTION      0.00   518.09     0  02:03           0        1.16       0.020
  YS02001901           JUNCTION      0.00   518.08     0  02:03           0        1.16       0.290
  YS02001904           JUNCTION      0.00   518.10     0  02:03           0        1.16       0.247
  YS02001907           JUNCTION      0.00  2068.22     0  02:02           0        3.99       0.453
  YS02001910           JUNCTION      0.00  1530.23     0  02:02           0        2.83       0.258
  YS02001915           JUNCTION   1022.90  1529.80     0  02:02         1.8        2.87       0.058
  YS02001918           JUNCTION      0.00   508.89     0  02:02           0        1.09       0.005
  YS02001920           JUNCTION      2.87   508.89     0  02:02      0.0818        1.08       0.099
  YS02001923           JUNCTION      0.04   505.76     0  02:02     0.00107       0.981      -0.037
  YS02001926           JUNCTION      0.05   505.86     0  02:02     0.00149        0.96      -0.024
  YS02001929           JUNCTION    498.77   498.77     0  02:03        0.95        0.95      -0.057
  YS02006553           JUNCTION      0.00   795.96     0  02:20           0        2.47       0.483
  YS02006556           JUNCTION      0.00   795.54     0  02:20           0        2.48       0.331
  YS02006558           JUNCTION   1187.20  1187.20     0  02:02         1.9        4.35       0.079
  YS02006561           JUNCTION      0.00  1174.05     0  01:55           0        4.32      -0.000
  YS02163301           JUNCTION      0.00   976.33     0  02:23           0        3.91       0.043
  YS02163601           JUNCTION      0.11  1378.32     0  01:55     0.00313        5.28       0.097
  YS02164001           JUNCTION      0.00  1378.16     0  01:55           0        5.27       0.047
  CC-1                 OUTFALL       0.00   683.00     0  00:00           0        5.13       0.000
  CC-2                 OUTFALL       0.00   683.00     0  00:00           0        5.13       0.000
  JK-1                 OUTFALL       0.00  1000.00     0  00:00           0         1.4       0.000
  JK-2                 OUTFALL       0.00  1000.00     0  00:00           0         1.4       0.000
  WSC                  OUTFALL       0.00   555.22     0  03:12           0        5.31       0.000
  CC-storage           STORAGE       0.00  3409.35     0  02:06           0          14      -0.329
  JK-storage           STORAGE       0.00  1369.91     0  02:00           0        4.51      -1.555
  
  
  **********************
  Node Surcharge Summary
  **********************
  
  Surcharging occurs when water rises above the top of the highest conduit.
  ---------------------------------------------------------------------
                                               Max. Height   Min. Depth
                                   Hours       Above Crown    Below Rim
  Node                 Type      Surcharged         Meters       Meters
  ---------------------------------------------------------------------
  WS02004404           JUNCTION        0.01          0.008        2.772
  WS02006109           JUNCTION        1.93          0.408        1.412
  WS02006110           JUNCTION        0.58          0.344        1.506
  WS02006112           JUNCTION        1.51          0.115        1.565
  WS02006228           JUNCTION        1.92          0.645        1.555
  WS02006229           JUNCTION        1.94          0.748        1.702
  WS02006230           JUNCTION        0.63          0.840        0.730
  WS02006231           JUNCTION        1.20          1.530        0.000
  WS02006232           JUNCTION        2.04          1.333        0.147
  WS02006234           JUNCTION        1.50          1.240        0.000
  WS02006235           JUNCTION        1.71          1.290        0.000
  WS02006238           JUNCTION        1.90          1.430        0.000
  WS02006239           JUNCTION        1.89          1.290        0.000
  WS02006240           JUNCTION        1.96          1.390        0.000
  WS02006242           JUNCTION        2.07          0.820        0.000
  WS02006243           JUNCTION        1.98          0.770        0.000
  WS02006245           JUNCTION        1.97          0.850        0.000
  WS02006247           JUNCTION        1.99          0.760        0.000
  WS02006248           JUNCTION        1.96          0.380        0.000
  WS02006249           JUNCTION        1.97          0.390        0.000
  WS02006251           JUNCTION        1.54          0.321        0.859
  WS02006252           JUNCTION        2.58          1.100        0.000
  WS02006256           JUNCTION        5.77          2.050        0.000
  YS02001580           JUNCTION        0.69          0.450        0.000
  YS02001583           JUNCTION        0.70          0.396        0.104
  YS02001586           JUNCTION        0.79          0.510        0.000
  YS02001590           JUNCTION        0.88          0.750        0.000
  YS02001593           JUNCTION        0.88          0.816        0.024
  YS02001596           JUNCTION        1.00          1.040        0.030
  YS02001600           JUNCTION        1.18          1.190        0.000
  YS02001601           JUNCTION        1.53          1.440        0.000
  YS02001602           JUNCTION        1.43          1.270        0.000
  YS02001605           JUNCTION        1.38          1.180        0.000
  YS02001607           JUNCTION        0.80          0.680        0.000
  YS02001610           JUNCTION        0.83          0.680        0.000
  YS02001613           JUNCTION        0.79          0.700        0.000
  YS02001616           JUNCTION        0.74          0.610        0.000
  YS02001619           JUNCTION        0.73          0.610        0.000
  YS02001622           JUNCTION        0.72          0.592        0.028
  YS02001625           JUNCTION        0.94          0.780        0.000
  YS02001629           JUNCTION        0.60          0.470        0.000
  YS02001633           JUNCTION        0.94          1.060        0.000
  YS02001641           JUNCTION        0.81          0.965        0.135
  YS02001644           JUNCTION        0.73          0.920        0.000
  YS02001647           JUNCTION        0.45          0.784        0.116
  YS02001649           JUNCTION        0.49          1.032        0.018
  YS02001652           JUNCTION        0.36          0.922        0.208
  YS02001655           JUNCTION        0.28          1.171        0.029
  YS02001658           JUNCTION        0.20          0.663        0.637
  YS02001661           JUNCTION        0.05          0.463        0.927
  YS02001748           JUNCTION        0.13          1.048        0.142
  YS02001751           JUNCTION        0.22          0.958        0.242
  YS02001754           JUNCTION        0.28          0.866        0.284
  YS02001757           JUNCTION        0.48          1.077        0.133
  YS02001759           JUNCTION        0.42          1.050        0.160
  YS02001762           JUNCTION        0.40          1.029        0.121
  YS02001765           JUNCTION        0.38          0.984        0.116
  YS02001767           JUNCTION        0.36          0.951        0.079
  YS02001770           JUNCTION        0.36          0.920        0.000
  YS02001774           JUNCTION        0.41          1.015        0.035
  YS02001779           JUNCTION        0.31          0.680        0.000
  YS02001783           JUNCTION        0.61          0.517        1.083
  YS02001784           JUNCTION        0.58          0.350        1.140
  YS02001786           JUNCTION        0.47          0.104        1.326
  YS02001882           JUNCTION        0.55          0.664        0.166
  YS02001884           JUNCTION        0.56          0.708        0.162
  YS02001887           JUNCTION        0.59          0.799        0.151
  YS02001890           JUNCTION        0.61          0.760        0.000
  YS02001895           JUNCTION        0.54          0.569        0.181
  YS02001898           JUNCTION        0.53          0.542        0.198
  YS02001901           JUNCTION        0.58          0.680        0.190
  YS02001904           JUNCTION        0.57          0.642        0.208
  YS02001907           JUNCTION        0.83          0.950        0.000
  YS02001910           JUNCTION        0.64          0.963        0.137
  YS02001915           JUNCTION        0.54          0.905        0.095
  YS02001918           JUNCTION        0.45          0.810        0.000
  YS02001920           JUNCTION        0.47          1.140        0.000
  YS02001923           JUNCTION        0.14          0.820        0.000
  YS02001926           JUNCTION        0.17          0.900        0.000
  YS02001929           JUNCTION        0.01          0.780        0.000
  YS02006553           JUNCTION        0.86          0.991        0.199
  YS02006556           JUNCTION        0.74          0.941        0.409
  YS02006558           JUNCTION        0.73          0.944        0.456
  YS02006561           JUNCTION        0.42          0.223        0.927
  YS02163301           JUNCTION        0.92          0.929        0.101
  YS02163601           JUNCTION        0.97          1.080        0.000
  YS02164001           JUNCTION        0.83          0.969        0.131
  
  
  *********************
  Node Flooding Summary
  *********************
  
  Flooding refers to all water that overflows a node, whether it ponds or not.
  --------------------------------------------------------------------------
                                                             Total   Maximum
                                 Maximum   Time of Max       Flood    Ponded
                        Hours       Rate    Occurrence      Volume     Depth
  Node                 Flooded       LPS   days hr:min    10^6 ltr    Meters
  --------------------------------------------------------------------------
  WS02006231              0.01     70.01      0  02:20       0.000     0.000
  WS02006234              0.01    152.60      0  02:28       0.001     0.000
  WS02006235              0.01     41.85      0  01:56       0.000     0.000
  WS02006238              0.01      0.78      0  01:53       0.000     0.000
  WS02006239              0.01      8.13      0  02:24       0.000     0.000
  WS02006240              0.01      0.27      0  01:53       0.000     0.000
  WS02006242              0.03     31.90      0  02:12       0.002     0.000
  WS02006243              0.01      5.59      0  03:09       0.000     0.000
  WS02006245              0.01      3.20      0  03:09       0.000     0.000
  WS02006247              0.01      2.80      0  03:09       0.000     0.000
  WS02006248              0.21     33.46      0  02:12       0.011     0.000
  WS02006249              1.38     91.52      0  01:48       0.245     0.000
  WS02006252              0.01    245.63      0  00:00       0.000     0.000
  WS02006256              1.64    295.33      0  02:19       0.642     0.000
  YS02001580              0.01     82.85      0  01:52       0.000     0.000
  YS02001586              0.56    472.14      0  02:04       0.452     0.000
  YS02001590              0.01     10.00      0  01:53       0.000     0.000
  YS02001600              0.01     20.64      0  01:53       0.000     0.000
  YS02001601              0.71   1329.65      0  02:03       1.561     0.000
  YS02001602              0.51     62.11      0  02:09       0.105     0.000
  YS02001605              0.01      3.76      0  01:52       0.000     0.000
  YS02001607              0.01      6.64      0  01:52       0.000     0.000
  YS02001610              0.46    781.14      0  02:04       0.761     0.000
  YS02001613              0.01     10.21      0  01:52       0.000     0.000
  YS02001616              0.01     12.44      0  01:52       0.000     0.000
  YS02001619              0.01     12.64      0  01:52       0.000     0.000
  YS02001625              0.38   1379.71      0  02:05       1.107     0.000
  YS02001629              0.14    188.72      0  02:00       0.053     0.000
  YS02001633              0.01      0.02      0  01:53       0.000     0.000
  YS02001644              0.19   1082.47      0  02:02       0.426     0.000
  YS02001770              0.01     11.78      0  01:58       0.000     0.000
  YS02001779              0.17    602.09      0  02:02       0.210     0.000
  YS02001890              0.20    372.13      0  02:01       0.129     0.000
  YS02001907              0.40   2068.10      0  02:02       1.520     0.000
  YS02001918              0.01    123.03      0  01:56       0.001     0.000
  YS02001920              0.01     39.72      0  01:56       0.000     0.000
  YS02001923              0.01    113.91      0  01:56       0.000     0.000
  YS02001926              0.01     65.91      0  01:56       0.000     0.000
  YS02001929              0.01    246.58      0  01:56       0.001     0.000
  YS02163601              0.01      0.65      0  01:53       0.000     0.000
  
  
  **********************
  Storage Volume Summary
  **********************
  
  ------------------------------------------------------------------------------------------------
                         Average    Avg   Evap  Exfil     Maximum    Max    Time of Max    Maximum
                          Volume   Pcnt   Pcnt   Pcnt      Volume   Pcnt     Occurrence    Outflow
  Storage Unit           1000 m³   Full   Loss   Loss     1000 m³   Full    days hr:min        LPS
  ------------------------------------------------------------------------------------------------
  CC-storage               0.757   11.8    0.0    0.0       2.681   41.8       0  02:36    1783.53
  JK-storage               0.007    2.4    0.0    0.0       0.150   51.6       0  00:00    2300.00
  
  
  ***********************
  Outfall Loading Summary
  ***********************
  
  -----------------------------------------------------------
                         Flow       Avg       Max       Total
                         Freq      Flow      Flow      Volume
  Outfall Node           Pcnt       LPS       LPS    10^6 ltr
  -----------------------------------------------------------
  CC-1                  47.28    683.00    683.00       5.132
  CC-2                  47.28    683.00    683.00       5.132
  JK-1                   9.27    999.69   1000.00       1.402
  JK-2                   9.27    999.69   1000.00       1.402
  WSC                   99.94    268.80    555.22       5.311
  -----------------------------------------------------------
  System                42.61   3634.17   3900.75      18.380
  
  
  ********************
  Link Flow Summary
  ********************
  
  -----------------------------------------------------------------------------
                                 Maximum  Time of Max   Maximum    Max/    Max/
                                  |Flow|   Occurrence   |Veloc|    Full    Full
  Link                 Type          LPS  days hr:min     m/sec    Flow   Depth
  -----------------------------------------------------------------------------
  1                    CONDUIT    555.22     0  03:12      2.83    0.19    0.30
  WS02003060WS02003069 CONDUIT    553.67     0  03:11      1.64    0.22    0.34
  WS02003066WSF200     CONDUIT    537.36     0  03:11      2.85    0.09    0.22
  WS02003067WS02003066 CONDUIT    537.31     0  03:10      1.21    0.17    0.42
  WS02003069WS02003072 CONDUIT    553.65     0  03:12      1.37    0.27    0.39
  WS02003072WS02003073 CONDUIT    553.48     0  03:12      1.44    1.20    0.37
  WS02004401WS02004402 CONDUIT    540.46     0  03:06      1.22    0.65    0.89
  WS02004402WS02004403 CONDUIT    539.20     0  03:03      1.24    0.77    0.91
  WS02004403WS02004404 CONDUIT    552.49     0  03:07      1.24    0.40    0.96
  WS02004404WS02004405 CONDUIT    601.89     0  03:03      1.45    5.90    0.98
  WS02004405WS02004406 CONDUIT    542.69     0  03:07      1.46    1.07    0.96
  WS02004406WS02004407 CONDUIT    538.69     0  03:09      1.04    0.24    0.63
  WS02004407WS02004409 CONDUIT    538.19     0  03:09      1.59    0.19    0.48
  WS02004409WS02004410 CONDUIT    537.85     0  03:09      1.06    0.70    0.67
  WS02004410WS02004411 CONDUIT    537.91     0  03:09      1.12    0.73    0.69
  WS02004411WS02004412 CONDUIT    537.57     0  03:10      1.22    0.76    0.69
  WS02004412WS02004413 CONDUIT    537.73     0  03:10      1.22    0.36    0.78
  WS02004413WS02003067 CONDUIT    537.30     0  03:10      1.11    0.23    0.59
  WS02006109WS02006110 CONDUIT    569.87     0  01:53      1.13    1.10    1.00
  WS02006110WS02006113 CONDUIT    577.22     0  01:48      1.38    0.53    0.79
  WS02006111WS02006112 CONDUIT    544.48     0  02:52      1.95    0.26    0.67
  WS02006112WS02006115 CONDUIT    552.54     0  01:48      0.90    0.33    0.88
  WS02006113WS02006111 CONDUIT    564.07     0  02:52      2.47    0.68    0.46
  WS02006115WS02006116 CONDUIT    539.26     0  02:52      1.29    0.69    0.78
  WS02006116WS02004401 CONDUIT    540.80     0  03:13      1.21    0.75    0.86
  WS02006228WS02006109 CONDUIT    567.29     0  01:48      1.13    2.48    1.00
  WS02006229WS02006228 CONDUIT    566.94     0  01:48      1.13    1.88    1.00
  WS02006230WS02006229 CONDUIT    567.50     0  01:48      1.47   12.63    1.00
  WS02006231WS02006230 CONDUIT    594.12     0  01:40      1.64    9.01    1.00
  WS02006232WS02006231 CONDUIT    612.06     0  01:39      1.62    1.28    1.00
  WS02006234WS02006232 CONDUIT    610.63     0  01:39      1.59    1.24    1.00
  WS02006235WS02006234 CONDUIT    603.30     0  01:39      1.57    6.37    1.00
  WS02006238WS02006235 CONDUIT    439.13     0  01:39      1.45    0.98    1.00
  WS02006239WS02006238 CONDUIT    436.90     0  01:39      1.14    1.40    1.00
  WS02006240WS02006239 CONDUIT    431.92     0  01:39      1.29    1.36    1.00
  WS02006242WS02006240 CONDUIT    426.15     0  01:39      1.17    1.69    1.00
  WS02006243WS02006242 CONDUIT    425.85     0  01:39      1.41    0.91    1.00
  WS02006245WS02006243 CONDUIT    425.01     0  01:39      1.45    1.26    1.00
  WS02006247WS02006245 CONDUIT    424.42     0  01:39      1.43    3.37    1.00
  WS02006248WS02006247 CONDUIT    424.69     0  01:39      1.45    0.92    1.00
  WS02006249WS02006248 CONDUIT    424.48     0  01:39      1.39    2.33    1.00
  WS02006251WS02006249 CONDUIT    476.59     0  03:36      2.00    1.37    1.00
  WS02006252WS02006251 CONDUIT    406.39     0  04:02     24.94    1.49    1.00
  WS02006256WS02006235 CONDUIT    288.91     0  00:00      4.23    3.06    1.00
  WSF200WS02003060     CONDUIT    537.62     0  03:11      2.06    0.12    0.28
  YS02001580YS02001583 CONDUIT    102.96     0  01:52      0.62    0.40    1.00
  YS02001583YS02001586 CONDUIT    152.76     0  01:52      0.64    0.23    1.00
  YS02001586YS02001590 CONDUIT    317.98     0  02:18      1.27    0.56    1.00
  YS02001590YS02001593 CONDUIT    318.03     0  02:18      1.12    2.00    1.00
  YS02001593YS02001596 CONDUIT    318.00     0  02:04      1.76    0.50    1.00
  YS02001596YS02001600 CONDUIT    318.11     0  02:04      1.25    0.62    1.00
  YS02001600YS02001601 CONDUIT    318.03     0  02:04      1.12    0.55    1.00
  YS02001601YS02001602 CONDUIT    511.98     0  01:51      1.81    1.85    1.00
  YS02001602YS02001605 CONDUIT    511.77     0  01:51      1.81   10.83    1.00
  YS02001605YS02001607 CONDUIT    512.20     0  01:51      1.81    2.81    1.00
  YS02001607YS02001610 CONDUIT    515.32     0  01:51      0.66    0.49    1.00
  YS02001610YS02001613 CONDUIT    517.67     0  01:51      0.66    0.60    1.00
  YS02001613YS02001616 CONDUIT    511.90     0  02:34      0.66    0.44    1.00
  YS02001616YS02001619 CONDUIT    512.06     0  02:34      0.67    0.89    1.00
  YS02001619YS02001622 CONDUIT    974.87     0  02:23      1.24    1.44    1.00
  YS02001622YS02001625 CONDUIT    974.87     0  02:23      1.24    0.52    1.00
  YS02001625YS02001629 CONDUIT    975.77     0  02:23      1.24    0.46    1.00
  YS02001629YS02163301 CONDUIT    976.33     0  02:23      1.24    1.20    1.00
  YS02001633YS02163601 CONDUIT   1378.21     0  01:55      1.75    1.45    1.00
  YS02001641YS02001644 CONDUIT   1376.07     0  01:55      1.75    4.45    1.00
  YS02001644YS02001647 CONDUIT   1782.73     0  01:55      2.28    1.05    1.00
  YS02001647YS02001649 CONDUIT   1786.47     0  01:55      2.31    0.94    1.00
  YS02001649YS02001757 CONDUIT   2020.07     0  01:55      2.58    1.23    1.00
  YS02001652YS02001649 CONDUIT    954.52     0  02:02      1.22    0.47    1.00
  YS02001655YS02001652 CONDUIT    954.19     0  02:02      1.31    0.46    1.00
  YS02001658YS02001655 CONDUIT    953.99     0  02:02      1.87    0.40    1.00
  YS02001661YS02001658 CONDUIT    953.91     0  02:02      2.32    0.37    1.00
  YS02001664YS02001661 CONDUIT    952.88     0  02:02      2.31    0.30    0.82
  YS02001745YS02001748 CONDUIT    601.37     0  02:01      2.18    0.23    0.91
  YS02001748YS02001751 CONDUIT    601.38     0  02:02      1.68    0.30    1.00
  YS02001751YS02001754 CONDUIT    601.98     0  02:02      1.39    0.29    1.00
  YS02001754YS02001757 CONDUIT    601.97     0  02:01      0.77    0.24    1.00
  YS02001757CaochengTiaoxuchi CONDUIT   3409.35     0  02:06      7.01    1.48    0.93
  YS02001759YS02001757 CONDUIT   1397.52     0  02:01      1.78    0.99    1.00
  YS02001762YS02001759 CONDUIT    817.57     0  02:08      1.04    0.94    1.00
  YS02001765YS02001762 CONDUIT    818.13     0  02:08      1.04    0.77    1.00
  YS02001767YS02001765 CONDUIT    817.50     0  02:08      1.04    1.03    1.00
  YS02001770YS02001767 CONDUIT    816.86     0  02:08      1.04    3.24    1.00
  YS02001774YS02001770 CONDUIT    602.69     0  02:02      0.77    0.38    1.00
  YS02001779YS02001774 CONDUIT    602.14     0  02:02      0.77    0.30    1.00
  YS02001783YS02001784 CONDUIT   1166.77     0  01:59      2.32    1.61    1.00
  YS02001784YS02001785 CONDUIT   1168.42     0  02:01      2.32    2.72    1.00
  YS02001786YS02001788 CONDUIT   1168.23     0  02:01      2.49    2.25    0.89
  YS02001788YS02001790 CONDUIT   1177.52     0  02:00      2.71    0.87    0.84
  YS02001790YS02001791 CONDUIT   1287.77     0  02:00      3.43    1.40    0.70
  YS02001791YS02001793 CONDUIT   1239.05     0  01:56      6.77    0.53    0.43
  YS02001793JiankangQianchi CONDUIT   1369.91     0  02:00     21.12    0.11    0.50
  YS02001882YS02001884 CONDUIT     32.42     0  01:53      0.14    0.04    1.00
  YS02001884YS02001887 CONDUIT     74.70     0  01:53      0.10    0.10    1.00
  YS02001887YS02001890 CONDUIT    887.51     0  02:01      1.13    1.52    1.00
  YS02001890YS02001895 CONDUIT    517.84     0  02:03      0.66    0.24    1.00
  YS02001895YS02001898 CONDUIT    518.09     0  02:03      0.66    0.90    1.00
  YS02001898YS02001901 CONDUIT    518.08     0  02:03      0.66    0.33    1.00
  YS02001901YS02001904 CONDUIT    518.10     0  02:03      0.66    0.80    1.00
  YS02001904YS02001907 CONDUIT    518.09     0  02:02      0.66    0.18    1.00
  YS02001907YS02006553 CONDUIT    795.96     0  02:20      0.88    0.94    1.00
  YS02001910YS02001907 CONDUIT   1529.98     0  02:02      1.95    0.86    1.00
  YS02001915YS02001910 CONDUIT   1530.23     0  02:02      1.95    0.76    1.00
  YS02001918YS02001915 CONDUIT    508.83     0  02:02      0.65    0.28    1.00
  YS02001920YS02001918 CONDUIT    508.89     0  02:02      0.65    0.49    1.00
  YS02001923YS02001920 CONDUIT    506.02     0  02:02      0.70    0.23    1.00
  YS02001926YS02001923 CONDUIT    505.72     0  02:02      0.96    0.72    1.00
  YS02001929YS02001926 CONDUIT    505.81     0  02:02      1.12    0.24    1.00
  YS02006553YS02006556 CONDUIT    795.54     0  02:20      1.01    0.68    1.00
  YS02006556YS02006558 CONDUIT    796.50     0  02:20      1.01    0.63    1.00
  YS02006558YS02006561 CONDUIT   1174.05     0  01:55      4.15    2.59    1.00
  YS02006561YS02001783 CONDUIT   1166.97     0  01:59      2.32    0.60    1.00
  YS02163301YS02001633 CONDUIT    975.37     0  02:23      1.24    0.92    1.00
  YS02163601YS02164001 CONDUIT   1378.16     0  01:55      1.75    1.22    1.00
  YS02164001YS02001641 CONDUIT   1375.97     0  01:55      1.75    1.88    1.00
  CC-R1                PUMP       683.00     0  00:00              1.00
  CC-R2                PUMP       683.00     0  00:00              1.00
  CC-S1                PUMP       200.00     0  00:00              1.00
  CC-S2                PUMP       200.00     0  00:00              1.00
  JK-R1                PUMP      1000.00     0  00:00              1.00
  JK-R2                PUMP      1000.00     0  00:00              1.00
  JK-S                 PUMP       300.00     0  00:00              1.00
  
  
  ***************************
  Flow Classification Summary
  ***************************
  
  -------------------------------------------------------------------------------------
                      Adjusted    ---------- Fraction of Time in Flow Class ---------- 
                       /Actual         Up    Down  Sub   Sup   Up    Down  Norm  Inlet 
  Conduit               Length    Dry  Dry   Dry   Crit  Crit  Crit  Crit  Ltd   Ctrl  
  -------------------------------------------------------------------------------------
  1                       1.00   0.00  0.00  0.00  0.00  1.00  0.00  0.00  0.34  0.00
  WS02003060WS02003069    1.00   0.00  0.00  0.00  0.97  0.03  0.00  0.00  0.71  0.00
  WS02003066WSF200        1.00   0.05  0.00  0.00  0.00  0.95  0.00  0.00  0.81  0.00
  WS02003067WS02003066    1.00   0.05  0.00  0.00  0.95  0.00  0.00  0.00  0.00  0.00
  WS02003069WS02003072    1.00   0.00  0.00  0.00  0.99  0.01  0.00  0.00  0.75  0.00
  WS02003072WS02003073    1.00   0.00  0.00  0.00  0.00  0.00  0.00  1.00  0.00  0.00
  WS02004401WS02004402    1.00   0.02  0.00  0.00  0.98  0.00  0.00  0.00  0.00  0.00
  WS02004402WS02004403    1.00   0.02  0.00  0.00  0.98  0.00  0.00  0.00  0.00  0.00
  WS02004403WS02004404    1.00   0.00  0.03  0.00  0.97  0.00  0.00  0.00  0.00  0.00
  WS02004404WS02004405    1.00   0.00  0.00  0.00  1.00  0.00  0.00  0.00  0.01  0.00
  WS02004405WS02004406    1.00   0.00  0.00  0.00  1.00  0.00  0.00  0.00  0.00  0.00
  WS02004406WS02004407    1.00   0.00  0.03  0.00  0.97  0.00  0.00  0.00  0.00  0.00
  WS02004407WS02004409    1.00   0.03  0.00  0.00  0.95  0.01  0.00  0.00  0.95  0.00
  WS02004409WS02004410    1.00   0.03  0.00  0.00  0.96  0.00  0.00  0.00  0.00  0.00
  WS02004410WS02004411    1.00   0.04  0.00  0.00  0.96  0.00  0.00  0.00  0.00  0.00
  WS02004411WS02004412    1.00   0.04  0.00  0.00  0.96  0.00  0.00  0.00  0.00  0.00
  WS02004412WS02004413    1.00   0.04  0.00  0.00  0.96  0.00  0.00  0.00  0.00  0.00
  WS02004413WS02003067    1.00   0.04  0.01  0.00  0.00  0.00  0.95  0.00  0.00  0.00
  WS02006109WS02006110    1.00   0.00  0.01  0.00  0.98  0.00  0.01  0.00  0.00  0.00
  WS02006110WS02006113    1.00   0.01  0.01  0.00  0.98  0.00  0.00  0.00  0.00  0.00
  WS02006111WS02006112    1.00   0.02  0.00  0.00  0.98  0.00  0.00  0.00  0.98  0.00
  WS02006112WS02006115    1.00   0.02  0.00  0.00  0.97  0.00  0.00  0.00  0.00  0.00
  WS02006113WS02006111    1.00   0.02  0.00  0.00  0.00  0.98  0.00  0.00  0.16  0.00
  WS02006115WS02006116    1.00   0.02  0.00  0.00  0.97  0.00  0.00  0.01  0.00  0.00
  WS02006116WS02004401    1.00   0.02  0.00  0.00  0.98  0.00  0.00  0.00  0.00  0.00
  WS02006228WS02006109    1.00   0.00  0.00  0.00  1.00  0.00  0.00  0.00  0.01  0.00
  WS02006229WS02006228    1.00   0.00  0.00  0.00  0.99  0.00  0.00  0.01  0.00  0.00
  WS02006230WS02006229    1.00   0.00  0.00  0.00  0.99  0.00  0.00  0.01  0.02  0.00
  WS02006231WS02006230    1.00   0.00  0.00  0.00  0.27  0.00  0.72  0.00  0.00  0.00
  WS02006232WS02006231    1.00   0.00  0.00  0.00  0.98  0.00  0.02  0.00  0.00  0.00
  WS02006234WS02006232    1.00   0.00  0.00  0.00  1.00  0.00  0.00  0.00  0.05  0.00
  WS02006235WS02006234    1.00   0.00  0.00  0.00  0.92  0.00  0.08  0.00  0.00  0.00
  WS02006238WS02006235    1.00   0.00  0.00  0.00  1.00  0.00  0.00  0.00  0.00  0.00
  WS02006239WS02006238    1.00   0.00  0.00  0.00  1.00  0.00  0.00  0.00  0.25  0.00
  WS02006240WS02006239    1.00   0.00  0.00  0.00  0.65  0.00  0.00  0.35  0.05  0.00
  WS02006242WS02006240    1.00   0.00  0.00  0.00  0.99  0.00  0.01  0.00  0.02  0.00
  WS02006243WS02006242    1.00   0.00  0.00  0.00  0.99  0.00  0.00  0.01  0.59  0.00
  WS02006245WS02006243    1.00   0.00  0.00  0.00  0.58  0.00  0.00  0.42  0.01  0.00
  WS02006247WS02006245    1.00   0.00  0.00  0.00  0.99  0.00  0.00  0.01  0.00  0.00
  WS02006248WS02006247    1.00   0.00  0.00  0.00  0.99  0.00  0.00  0.01  0.22  0.00
  WS02006249WS02006248    1.00   0.00  0.00  0.00  0.40  0.00  0.60  0.00  0.00  0.00
  WS02006251WS02006249    1.00   0.00  0.00  0.00  1.00  0.00  0.00  0.00  0.62  0.00
  WS02006252WS02006251    1.00   0.00  0.65  0.00  0.19  0.00  0.15  0.00  0.00  0.00
  WS02006256WS02006235    1.00   0.00  0.00  0.00  0.98  0.02  0.00  0.00  0.00  0.00
  WSF200WS02003060        1.00   0.00  0.05  0.00  0.38  0.57  0.00  0.00  0.65  0.00
  YS02001580YS02001583    1.00   0.23  0.56  0.00  0.20  0.00  0.00  0.00  0.66  0.00
  YS02001583YS02001586    1.00   0.41  0.33  0.00  0.26  0.00  0.00  0.00  0.66  0.00
  YS02001586YS02001590    1.00   0.13  0.00  0.00  0.44  0.04  0.00  0.39  0.37  0.00
  YS02001590YS02001593    1.00   0.13  0.01  0.00  0.13  0.00  0.74  0.00  0.00  0.00
  YS02001593YS02001596    1.00   0.14  0.00  0.00  0.15  0.01  0.00  0.71  0.02  0.00
  YS02001596YS02001600    1.00   0.14  0.00  0.00  0.21  0.01  0.00  0.64  0.04  0.00
  YS02001600YS02001601    1.00   0.13  0.01  0.00  0.86  0.00  0.00  0.00  0.59  0.00
  YS02001601YS02001602    1.00   0.13  0.01  0.00  0.86  0.00  0.00  0.00  0.00  0.00
  YS02001602YS02001605    1.00   0.14  0.00  0.00  0.86  0.00  0.00  0.00  0.00  0.00
  YS02001605YS02001607    1.00   0.14  0.00  0.00  0.86  0.00  0.00  0.00  0.00  0.00
  YS02001607YS02001610    1.00   0.13  0.01  0.00  0.86  0.00  0.00  0.00  0.01  0.00
  YS02001610YS02001613    1.00   0.13  0.00  0.00  0.87  0.00  0.00  0.00  0.00  0.00
  YS02001613YS02001616    1.00   0.13  0.00  0.00  0.87  0.00  0.00  0.00  0.00  0.00
  YS02001616YS02001619    1.00   0.13  0.00  0.00  0.87  0.00  0.00  0.00  0.00  0.00
  YS02001619YS02001622    1.00   0.13  0.00  0.00  0.87  0.00  0.00  0.00  0.27  0.00
  YS02001622YS02001625    1.00   0.13  0.00  0.00  0.87  0.00  0.00  0.00  0.04  0.00
  YS02001625YS02001629    1.00   0.13  0.05  0.00  0.17  0.00  0.65  0.00  0.00  0.00
  YS02001629YS02163301    1.00   0.15  0.01  0.00  0.84  0.00  0.00  0.00  0.00  0.00
  YS02001633YS02163601    1.00   0.00  0.01  0.00  0.99  0.00  0.00  0.00  0.15  0.00
  YS02001641YS02001644    1.00   0.00  0.01  0.00  0.99  0.00  0.00  0.00  0.00  0.00
  YS02001644YS02001647    1.00   0.00  0.17  0.00  0.83  0.00  0.00  0.00  0.00  0.00
  YS02001647YS02001649    1.00   0.00  0.17  0.00  0.50  0.33  0.00  0.00  0.56  0.00
  YS02001649YS02001757    1.00   0.00  0.00  0.00  0.77  0.23  0.00  0.00  0.70  0.00
  YS02001652YS02001649    1.00   0.00  0.00  0.00  0.97  0.03  0.00  0.00  0.73  0.00
  YS02001655YS02001652    1.00   0.00  0.00  0.00  0.19  0.01  0.00  0.79  0.10  0.00
  YS02001658YS02001655    1.00   0.00  0.14  0.00  0.61  0.25  0.00  0.00  0.72  0.00
  YS02001661YS02001658    1.00   0.14  0.00  0.00  0.45  0.41  0.00  0.00  0.71  0.00
  YS02001664YS02001661    1.00   0.13  0.00  0.00  0.72  0.15  0.00  0.00  0.85  0.00
  YS02001745YS02001748    1.00   0.00  0.00  0.00  0.04  0.01  0.00  0.95  0.02  0.00
  YS02001748YS02001751    1.00   0.00  0.00  0.00  0.76  0.24  0.00  0.00  0.82  0.00
  YS02001751YS02001754    1.00   0.00  0.00  0.00  0.12  0.01  0.00  0.86  0.05  0.00
  YS02001754YS02001757    1.00   0.00  0.00  0.00  1.00  0.00  0.00  0.00  0.84  0.00
  YS02001757CaochengTiaoxuchi    1.00   0.00  0.00  0.00  0.19  0.81  0.00  0.00  0.24  0.00
  YS02001759YS02001757    1.00   0.00  0.00  0.00  1.00  0.00  0.00  0.00  0.65  0.00
  YS02001762YS02001759    1.00   0.00  0.00  0.00  1.00  0.00  0.00  0.00  0.05  0.00
  YS02001765YS02001762    1.00   0.00  0.00  0.00  1.00  0.00  0.00  0.00  0.72  0.00
  YS02001767YS02001765    1.00   0.00  0.00  0.00  1.00  0.00  0.00  0.00  0.00  0.00
  YS02001770YS02001767    1.00   0.00  0.00  0.00  1.00  0.00  0.00  0.00  0.00  0.00
  YS02001774YS02001770    1.00   0.00  0.13  0.00  0.71  0.00  0.16  0.00  0.03  0.00
  YS02001779YS02001774    1.00   0.00  0.00  0.00  1.00  0.00  0.00  0.00  0.78  0.00
  YS02001783YS02001784    1.00   0.00  0.18  0.00  0.82  0.00  0.00  0.00  0.55  0.00
  YS02001784YS02001785    1.00   0.00  0.00  0.00  1.00  0.00  0.00  0.00  0.16  0.00
  YS02001786YS02001788    1.00   0.00  0.00  0.00  0.79  0.21  0.00  0.00  0.00  0.00
  YS02001788YS02001790    1.00   0.00  0.00  0.00  0.21  0.79  0.00  0.00  0.79  0.00
  YS02001790YS02001791    1.00   0.00  0.00  0.00  0.01  0.99  0.00  0.00  0.16  0.00
  YS02001791YS02001793    1.00   0.00  0.00  0.00  0.00  1.00  0.00  0.00  0.01  0.00
  YS02001793JiankangQianchi    1.00   0.00  0.00  0.00  0.43  0.57  0.00  0.00  0.84  0.00
  YS02001882YS02001884    1.00   0.15  0.01  0.00  0.84  0.00  0.00  0.00  0.00  0.00
  YS02001884YS02001887    1.00   0.06  0.05  0.00  0.89  0.00  0.00  0.00  0.00  0.00
  YS02001887YS02001890    1.00   0.00  0.00  0.00  0.97  0.00  0.03  0.00  0.00  0.00
  YS02001890YS02001895    1.00   0.00  0.16  0.00  0.84  0.00  0.00  0.00  0.00  0.00
  YS02001895YS02001898    1.00   0.16  0.00  0.00  0.82  0.00  0.02  0.00  0.00  0.00
  YS02001898YS02001901    1.00   0.16  0.00  0.00  0.83  0.00  0.00  0.00  0.01  0.00
  YS02001901YS02001904    1.00   0.16  0.00  0.00  0.84  0.00  0.00  0.00  0.00  0.00
  YS02001904YS02001907    1.00   0.00  0.16  0.00  0.84  0.00  0.00  0.00  0.00  0.00
  YS02001907YS02006553    1.00   0.00  0.02  0.00  0.98  0.00  0.00  0.00  0.00  0.00
  YS02001910YS02001907    1.00   0.00  0.00  0.00  0.97  0.00  0.00  0.03  0.12  0.00
  YS02001915YS02001910    1.00   0.00  0.00  0.00  0.97  0.03  0.00  0.00  0.15  0.00
  YS02001918YS02001915    1.00   0.00  0.01  0.00  0.98  0.02  0.00  0.00  0.74  0.00
  YS02001920YS02001918    1.00   0.00  0.01  0.00  0.99  0.00  0.00  0.00  0.00  0.00
  YS02001923YS02001920    1.00   0.00  0.00  0.00  1.00  0.00  0.00  0.00  0.91  0.00
  YS02001926YS02001923    1.00   0.00  0.07  0.00  0.07  0.00  0.86  0.00  0.00  0.00
  YS02001929YS02001926    1.00   0.00  0.13  0.00  0.87  0.00  0.00  0.00  0.81  0.00
  YS02006553YS02006556    1.00   0.01  0.00  0.00  0.99  0.00  0.00  0.00  0.03  0.00
  YS02006556YS02006558    1.00   0.00  0.00  0.00  1.00  0.00  0.00  0.00  0.00  0.00
  YS02006558YS02006561    1.00   0.18  0.00  0.00  0.07  0.76  0.00  0.00  0.18  0.00
  YS02006561YS02001783    1.00   0.18  0.00  0.00  0.10  0.72  0.00  0.00  0.67  0.00
  YS02163301YS02001633    1.00   0.00  0.15  0.00  0.85  0.00  0.00  0.00  0.00  0.00
  YS02163601YS02164001    1.00   0.00  0.08  0.00  0.92  0.00  0.00  0.00  0.00  0.00
  YS02164001YS02001641    1.00   0.01  0.08  0.00  0.92  0.00  0.00  0.00  0.06  0.00
  
  
  *************************
  Conduit Surcharge Summary
  *************************
  
  ----------------------------------------------------------------------------
                                                           Hours        Hours 
                         --------- Hours Full --------   Above Full   Capacity
  Conduit                Both Ends  Upstream  Dnstream   Normal Flow   Limited
  ----------------------------------------------------------------------------
  WS02003072WS02003073        0.01      0.01      0.01      1.69         0.01
  WS02004403WS02004404        0.01      0.01      0.01      0.01         0.01
  WS02004404WS02004405        0.01      0.01      0.01      3.21         0.01
  WS02004405WS02004406        0.01      0.01      0.01      1.20         0.01
  WS02006109WS02006110        0.57      0.57      2.01      0.83         0.01
  WS02006110WS02006113        0.01      0.01      1.99      0.01         0.01
  WS02006111WS02006112        0.01      0.01      2.14      0.01         0.01
  WS02006112WS02006115        0.01      0.01      1.51      0.01         0.01
  WS02006228WS02006109        1.93      2.02      1.93      2.49         1.93
  WS02006229WS02006228        1.91      1.94      1.91      2.26         1.89
  WS02006230WS02006229        2.13      2.19      2.13      3.69         2.13
  WS02006231WS02006230        0.62      0.62      1.43      3.25         0.01
  WS02006232WS02006231        1.19      1.19      2.04      1.28         0.01
  WS02006234WS02006232        1.72      1.72      2.04      1.21         1.08
  WS02006235WS02006234        1.44      1.49      1.69      3.01         0.11
  WS02006238WS02006235        1.77      1.77      2.05      0.01         0.07
  WS02006239WS02006238        1.90      2.04      1.90      2.25         1.55
  WS02006240WS02006239        1.89      1.98      1.89      2.27         1.48
  WS02006242WS02006240        1.96      1.96      2.13      2.43         0.03
  WS02006243WS02006242        1.99      1.99      2.07      0.01         0.29
  WS02006245WS02006243        1.97      1.98      1.98      1.84         1.10
  WS02006247WS02006245        1.97      2.01      1.97      2.59         1.82
  WS02006248WS02006247        1.97      1.97      1.99      0.01         0.34
  WS02006249WS02006248        1.95      1.96      1.97      2.55         0.01
  WS02006251WS02006249        1.97      1.98      1.97      2.50         1.74
  WS02006252WS02006251        2.58      2.58      2.58      2.58         0.01
  WS02006256WS02006235        2.91      3.15      5.58      1.68         0.01
  YS02001580YS02001583        0.69      0.69      0.71      0.01         0.01
  YS02001583YS02001586        0.70      0.70      0.79      0.01         0.01
  YS02001586YS02001590        0.80      0.80      0.88      0.01         0.01
  YS02001590YS02001593        0.88      0.88      0.90      0.96         0.01
  YS02001593YS02001596        0.89      0.89      1.00      0.01         0.01
  YS02001596YS02001600        1.05      1.05      1.18      0.01         0.01
  YS02001600YS02001601        1.26      1.26      1.53      0.01         0.01
  YS02001601YS02001602        1.43      1.43      1.56      1.21         0.01
  YS02001602YS02001605        1.38      1.38      1.43      2.33         0.01
  YS02001605YS02001607        1.34      1.38      1.34      1.49         1.34
  YS02001607YS02001610        0.80      0.80      0.83      0.01         0.01
  YS02001610YS02001613        0.79      0.79      0.83      0.01         0.01
  YS02001613YS02001616        0.74      0.74      0.79      0.01         0.01
  YS02001616YS02001619        0.73      0.73      0.74      0.01         0.04
  YS02001619YS02001622        0.72      0.73      0.72      0.93         0.70
  YS02001622YS02001625        0.72      0.72      0.94      0.01         0.01
  YS02001625YS02001629        0.60      0.60      0.94      0.01         0.01
  YS02001629YS02163301        0.91      0.91      0.92      0.42         0.40
  YS02001633YS02163601        0.94      0.94      0.97      0.55         0.54
  YS02001641YS02001644        0.73      0.81      0.73      1.59         0.72
  YS02001644YS02001647        0.45      0.45      0.73      0.04         0.01
  YS02001647YS02001649        0.45      0.45      0.49      0.01         0.01
  YS02001649YS02001757        0.48      0.49      0.48      0.45         0.32
  YS02001652YS02001649        0.38      0.38      0.49      0.01         0.01
  YS02001655YS02001652        0.28      0.28      0.36      0.01         0.01
  YS02001658YS02001655        0.20      0.20      0.28      0.01         0.01
  YS02001661YS02001658        0.05      0.05      0.20      0.01         0.01
  YS02001664YS02001661        0.01      0.01      0.11      0.01         0.01
  YS02001745YS02001748        0.01      0.01      0.13      0.01         0.01
  YS02001748YS02001751        0.17      0.17      0.22      0.01         0.01
  YS02001751YS02001754        0.22      0.22      0.28      0.01         0.01
  YS02001754YS02001757        0.30      0.30      0.48      0.01         0.01
  YS02001757CaochengTiaoxuchi        0.01      0.48      0.01      0.58         0.01
  YS02001759YS02001757        0.42      0.42      0.48      0.01         0.03
  YS02001762YS02001759        0.40      0.40      0.42      0.01         0.03
  YS02001765YS02001762        0.38      0.38      0.40      0.01         0.01
  YS02001767YS02001765        0.36      0.36      0.38      0.01         0.04
  YS02001770YS02001767        0.36      0.37      0.36      0.66         0.36
  YS02001774YS02001770        0.36      0.36      0.41      0.01         0.01
  YS02001779YS02001774        0.31      0.31      0.41      0.01         0.01
  YS02001783YS02001784        0.58      0.61      0.58      0.76         0.58
  YS02001784YS02001785        0.47      0.58      0.47      1.02         0.47
  YS02001786YS02001788        0.01      0.47      0.01      0.87         0.01
  YS02001790YS02001791        0.01      0.01      0.01      0.57         0.01
  YS02001882YS02001884        0.55      0.55      0.56      0.01         0.01
  YS02001884YS02001887        0.58      0.58      0.59      0.01         0.01
  YS02001887YS02001890        0.61      0.61      0.62      0.14         0.01
  YS02001890YS02001895        0.54      0.54      0.64      0.01         0.01
  YS02001895YS02001898        0.53      0.53      0.54      0.01         0.01
  YS02001898YS02001901        0.54      0.54      0.58      0.01         0.01
  YS02001901YS02001904        0.57      0.57      0.58      0.01         0.01
  YS02001904YS02001907        0.57      0.57      0.86      0.01         0.01
  YS02001907YS02006553        1.03      1.03      1.11      0.01         0.01
  YS02001910YS02001907        0.64      0.64      0.83      0.01         0.01
  YS02001915YS02001910        0.54      0.54      0.64      0.01         0.01
  YS02001918YS02001915        0.45      0.45      0.54      0.01         0.01
  YS02001920YS02001918        0.45      0.45      0.47      0.01         0.01
  YS02001923YS02001920        0.41      0.41      0.47      0.01         0.01
  YS02001926YS02001923        0.14      0.14      0.17      0.01         0.01
  YS02001929YS02001926        0.01      0.01      0.17      0.01         0.01
  YS02006553YS02006556        0.74      0.74      0.86      0.01         0.01
  YS02006556YS02006558        0.79      0.79      0.88      0.01         0.01
  YS02006558YS02006561        0.49      0.73      0.49      0.97         0.49
  YS02006561YS02001783        0.42      0.42      0.61      0.01         0.01
  YS02163301YS02001633        0.92      0.92      0.97      0.01         0.03
  YS02163601YS02164001        0.83      0.83      0.97      0.35         0.01
  YS02164001YS02001641        0.81      0.83      0.81      0.82         0.60
  
  
  ***************
  Pumping Summary
  ***************
  
  ---------------------------------------------------------------------------------------------------------
                                                  Min       Avg       Max     Total     Power    % Time Off
                        Percent   Number of      Flow      Flow      Flow    Volume     Usage    Pump Curve
  Pump                 Utilized   Start-Ups       LPS       LPS       LPS  10^6 ltr     Kw-hr    Low   High
  ---------------------------------------------------------------------------------------------------------
  CC-R1                   26.36           2      0.00    683.00    683.00     5.132     84.21    0.0  100.0
  CC-R2                   26.36           2      0.00    683.00    683.00     5.132     84.21    0.0  100.0
  CC-S1                   32.54           5      0.00    200.00    200.00     1.855     14.84    0.0   43.5
  CC-S2                   32.54           5      0.00    200.00    200.00     1.855     14.84    0.0   43.5
  JK-R1                    4.98          69      0.00    999.69   1000.00     1.419      4.15    0.0    0.0
  JK-R2                    4.98          69      0.00    999.69   1000.00     1.419      4.15    0.0    0.0
  JK-S                    20.74          98      0.00    299.92    300.00     1.773     39.79    0.0    0.0
  

  Analysis begun on:  Thu Jan 16 14:26:24 2025
  Analysis ended on:  Thu Jan 16 14:26:25 2025
  Total elapsed time: 00:00:01