
  EPA STORM WATER MANAGEMENT MODEL - VERSION 5.2 (Build 5.2.4)
  PYSWMM TOOLKIT API - VERSION v1.0 (2023-11-27)
  ------------------------------------------------------------

  WARNING 04: minimum elevation drop used for Conduit WS02004404WS02004405
  WARNING 03: negative offset ignored for Link YS02001904YS02001907
  
  ****************
  Analysis Options
  ****************
  Flow Units ............... LPS
  Process Models:
    Rainfall/Runoff ........ YES
    RDII ................... NO
    Snowmelt ............... NO
    Groundwater ............ NO
    Flow Routing ........... YES
    Ponding Allowed ........ NO
    Water Quality .......... NO
  Infiltration Method ...... HORTON
  Flow Routing Method ...... DYNWAVE
  Surcharge Method ......... EXTRAN
  Starting Date ............ 08/28/2015 08:00:00
  Ending Date .............. 08/28/2015 16:00:00
  Antecedent Dry Days ...... 8.0
  Report Time Step ......... 00:01:00
  Wet Time Step ............ 00:01:00
  Dry Time Step ............ 00:01:00
  Routing Time Step ........ 30.00 sec
  Variable Time Step ....... YES
  Maximum Trials ........... 8
  Number of Threads ........ 4
  Head Tolerance ........... 0.001500 m
  
  
  **************************        Volume         Depth
  Runoff Quantity Continuity     hectare-m            mm
  **************************     ---------       -------
  Total Precipitation ......         2.718        81.936
  Evaporation Loss .........         0.000         0.000
  Infiltration Loss ........         0.104         3.146
  Surface Runoff ...........         2.581        77.811
  Final Storage ............         0.033         0.998
  Continuity Error (%) .....        -0.024
  
  
  **************************        Volume        Volume
  Flow Routing Continuity        hectare-m      10^6 ltr
  **************************     ---------     ---------
  Dry Weather Inflow .......         0.025         0.248
  Wet Weather Inflow .......         2.581        25.807
  Groundwater Inflow .......         0.000         0.000
  RDII Inflow ..............         0.000         0.000
  External Inflow ..........         0.083         0.825
  External Outflow .........         1.939        19.386
  Flooding Loss ............         0.968         9.683
  Evaporation Loss .........         0.000         0.000
  Exfiltration Loss ........         0.000         0.000
  Initial Stored Volume ....         0.243         2.431
  Final Stored Volume ......         0.039         0.394
  Continuity Error (%) .....        -0.522
  
  
  *************************
  Highest Continuity Errors
  *************************
  Node YS02001884 (5.13%)
  Node WS02006256 (-3.65%)
  Node YS02001583 (-3.63%)
  Node JK-storage (-1.56%)
  
  
  ***************************
  Time-Step Critical Elements
  ***************************
  Link WS02006238WS02006235 (30.18%)
  Link WS02004404WS02004405 (19.71%)
  Link WS02003066WSF200 (14.28%)
  Link YS02001793JiankangQianchi (9.34%)
  Link YS02001791YS02001793 (5.53%)
  
  
  ********************************
  Highest Flow Instability Indexes
  ********************************
  Link WS02006113WS02006111 (37)
  Link WS02006252WS02006251 (29)
  Link WS02004404WS02004405 (28)
  Link WS02004403WS02004404 (25)
  Link WS02006256WS02006235 (23)
  
  
  *********************************
  Most Frequent Nonconverging Nodes
  *********************************
  Node CC-1 (35.22%)
  Node CC-2 (35.22%)
  Node JK-1 (35.22%)
  Node JK-2 (35.22%)
  Node WSC (35.22%)
  
  
  *************************
  Routing Time Step Summary
  *************************
  Minimum Time Step           :     0.00 sec
  Average Time Step           :     2.75 sec
  Maximum Time Step           :     6.43 sec
  % of Time in Steady State   :     0.00
  Average Iterations per Step :     4.54
  % of Steps Not Converging   :    35.22
  Time Step Frequencies       :
     30.000 - 13.228 sec      :     0.00 %
     13.228 -  5.833 sec      :    11.19 %
      5.833 -  2.572 sec      :    31.69 %
      2.572 -  1.134 sec      :    40.44 %
      1.134 -  0.500 sec      :    16.68 %
  
  
  ***************************
  Subcatchment Runoff Summary
  ***************************
  
  ------------------------------------------------------------------------------------------------------------------------------
                            Total      Total      Total      Total     Imperv       Perv      Total       Total     Peak  Runoff
                           Precip      Runon       Evap      Infil     Runoff     Runoff     Runoff      Runoff   Runoff   Coeff
  Subcatchment                 mm         mm         mm         mm         mm         mm         mm    10^6 ltr      LPS
  ------------------------------------------------------------------------------------------------------------------------------
  sub60                     81.94       0.00       0.00       1.85      70.91       7.98      78.89        1.04   771.42   0.963
  sub61                     81.94       0.00       0.00       2.70      66.88      11.24      78.12        1.43  1073.73   0.953
  sub62                     81.94       0.00       0.00       1.24      74.10       5.32      79.42        2.18  1520.17   0.969
  sub63                     81.94       0.00       0.00       5.03      57.21      18.74      75.95        1.72  1237.58   0.927
  sub64                     81.94       0.00       0.00       2.53      68.44       9.76      78.20        1.88  1256.42   0.954
  sub65                     81.94       0.00       0.00       2.19      70.03       8.46      78.49        2.16  1405.43   0.958
  sub66                     81.94       0.00       0.00       6.30      57.10      17.46      74.55        3.48  1921.28   0.910
  sub67                     81.94       0.00       0.00       1.18      74.15       5.37      79.52        1.48  1141.56   0.971
  sub68                     81.94       0.00       0.00       2.24      69.28       9.24      78.52        2.16  1558.53   0.958
  sub69                     81.94       0.00       0.00       2.03      69.54      10.26      79.80        2.95  1866.82   0.974
  sub70                     81.94       0.00       0.00       6.88      53.91      20.98      74.89        2.16  1080.85   0.914
  sub71                     81.94       0.00       0.00       1.27      74.05       5.28      79.34        2.07  1353.04   0.968
  sub72                     81.94       0.00       0.00       1.13      74.79       4.60      79.40        1.09   659.01   0.969
  
  
  ******************
  Node Depth Summary
  ******************
  
  ---------------------------------------------------------------------------------
                                 Average  Maximum  Maximum  Time of Max    Reported
                                   Depth    Depth      HGL   Occurrence   Max Depth
  Node                 Type       Meters   Meters   Meters  days hr:min      Meters
  ---------------------------------------------------------------------------------
  WS02003060           JUNCTION     0.24     0.38     5.31     0  03:15        0.38
  WS02003066           JUNCTION     0.20     0.30     5.85     0  03:15        0.30
  WS02003067           JUNCTION     0.50     0.70     6.02     0  03:14        0.70
  WS02003069           JUNCTION     0.27     0.43     5.01     0  03:16        0.43
  WS02003072           JUNCTION     0.33     0.50     4.87     0  03:16        0.50
  WS02003073           JUNCTION     0.19     0.30     4.36     0  03:17        0.30
  WS02004401           JUNCTION     0.61     0.87     6.87     0  03:12        0.87
  WS02004402           JUNCTION     0.64     0.90     6.86     0  03:13        0.90
  WS02004403           JUNCTION     0.66     0.92     6.85     0  03:13        0.91
  WS02004404           JUNCTION     0.73     1.01     6.86     0  03:13        0.99
  WS02004405           JUNCTION     0.72     0.97     6.82     0  03:13        0.97
  WS02004406           JUNCTION     0.73     0.96     6.79     0  03:13        0.95
  WS02004407           JUNCTION     0.18     0.30     6.61     0  03:13        0.29
  WS02004409           JUNCTION     0.41     0.66     6.43     0  03:13        0.66
  WS02004410           JUNCTION     0.43     0.68     6.40     0  03:14        0.68
  WS02004411           JUNCTION     0.45     0.69     6.37     0  03:14        0.69
  WS02004412           JUNCTION     0.47     0.69     6.33     0  03:14        0.69
  WS02004413           JUNCTION     0.62     0.85     6.32     0  03:14        0.85
  WS02006109           JUNCTION     0.69     1.28     7.90     0  02:56        1.09
  WS02006110           JUNCTION     0.68     1.33     7.92     0  02:56        1.04
  WS02006111           JUNCTION     0.19     0.29     6.99     0  01:47        0.29
  WS02006112           JUNCTION     0.78     1.12     7.00     0  03:22        1.07
  WS02006113           JUNCTION     0.29     0.46     7.35     0  03:05        0.46
  WS02006115           JUNCTION     0.50     0.77     6.91     0  03:12        0.77
  WS02006116           JUNCTION     0.59     0.85     6.89     0  03:12        0.85
  WS02006228           JUNCTION     0.69     1.46     8.12     0  03:01        1.12
  WS02006229           JUNCTION     0.67     1.54     8.23     0  03:01        1.15
  WS02006230           JUNCTION     0.69     1.90     8.64     0  03:01        1.29
  WS02006231           JUNCTION     0.48     2.24     9.36     0  02:45        1.46
  WS02006232           JUNCTION     0.62     2.18     9.22     0  02:33        2.18
  WS02006234           JUNCTION     0.56     1.96     9.12     0  02:33        1.96
  WS02006235           JUNCTION     0.60     2.00     9.16     0  02:24        2.00
  WS02006238           JUNCTION     0.63     2.15     9.29     0  02:33        2.15
  WS02006239           JUNCTION     0.60     2.03     9.24     0  02:33        2.03
  WS02006240           JUNCTION     0.57     2.10     9.39     0  02:41        2.10
  WS02006242           JUNCTION     0.64     1.55     8.82     0  01:59        1.55
  WS02006243           JUNCTION     0.57     1.48     8.90     0  02:04        1.48
  WS02006245           JUNCTION     0.57     1.56     9.04     0  02:33        1.56
  WS02006247           JUNCTION     0.59     1.47     8.97     0  02:33        1.47
  WS02006248           JUNCTION     0.56     1.10     8.69     0  01:56        1.10
  WS02006249           JUNCTION     0.58     1.09     8.69     0  01:40        1.09
  WS02006251           JUNCTION     0.58     1.40     9.07     0  03:03        1.26
  WS02006252           JUNCTION     0.37     1.50     9.74     0  00:00        1.50
  WS02006256           JUNCTION     1.15     2.35     9.28     0  00:00        2.35
  WSF200               JUNCTION     0.17     0.29     5.52     0  03:15        0.29
  YS02001580           JUNCTION     0.16     1.05     9.59     0  02:06        1.05
  YS02001583           JUNCTION     0.19     1.14     9.64     0  02:07        0.97
  YS02001586           JUNCTION     0.30     1.13     9.30     0  02:07        1.13
  YS02001590           JUNCTION     0.42     1.38     9.24     0  02:27        1.38
  YS02001593           JUNCTION     0.35     1.30     9.16     0  02:06        1.28
  YS02001596           JUNCTION     0.48     1.66     9.08     0  02:06        1.65
  YS02001600           JUNCTION     0.57     1.87     9.00     0  02:41        1.87
  YS02001601           JUNCTION     0.75     2.06     8.90     0  02:06        2.06
  YS02001602           JUNCTION     0.65     1.87     8.77     0  02:11        1.87
  YS02001605           JUNCTION     0.60     1.78     8.68     0  02:33        1.78
  YS02001607           JUNCTION     0.56     1.65     8.49     0  02:27        1.65
  YS02001610           JUNCTION     0.60     1.68     8.48     0  02:12        1.68
  YS02001613           JUNCTION     0.56     1.68     8.52     0  02:25        1.68
  YS02001616           JUNCTION     0.49     1.61     8.52     0  02:22        1.61
  YS02001619           JUNCTION     0.47     1.61     8.54     0  02:22        1.61
  YS02001622           JUNCTION     0.46     1.58     8.49     0  02:25        1.58
  YS02001625           JUNCTION     0.70     1.78     8.38     0  02:12        1.78
  YS02001629           JUNCTION     0.60     1.85     8.40     0  02:15        1.85
  YS02001633           JUNCTION     0.67     2.05     8.50     0  02:25        2.05
  YS02001641           JUNCTION     0.62     1.95     8.39     0  02:24        1.94
  YS02001644           JUNCTION     0.61     1.92     8.35     0  02:16        1.92
  YS02001647           JUNCTION     0.39     1.77     8.38     0  02:24        1.77
  YS02001649           JUNCTION     0.43     2.01     8.40     0  02:24        2.00
  YS02001652           JUNCTION     0.31     1.87     8.47     0  02:24        1.87
  YS02001655           JUNCTION     0.23     1.70     8.55     0  02:24        1.69
  YS02001658           JUNCTION     0.17     1.49     8.63     0  02:24        1.49
  YS02001661           JUNCTION     0.19     1.31     8.72     0  02:24        1.30
  YS02001664           JUNCTION     0.09     0.82     8.75     0  02:24        0.80
  YS02001745           JUNCTION     0.10     0.92     8.44     0  02:24        0.92
  YS02001748           JUNCTION     0.15     1.66     8.74     0  02:18        1.33
  YS02001751           JUNCTION     0.18     1.57     8.45     0  02:18        1.50
  YS02001754           JUNCTION     0.25     1.74     8.35     0  02:23        1.74
  YS02001757           JUNCTION     0.43     2.05     8.31     0  02:24        2.04
  YS02001759           JUNCTION     0.37     2.08     8.44     0  02:25        2.08
  YS02001762           JUNCTION     0.36     2.03     8.43     0  02:24        2.03
  YS02001765           JUNCTION     0.34     1.99     8.44     0  02:24        1.99
  YS02001767           JUNCTION     0.34     1.96     8.45     0  02:25        1.96
  YS02001770           JUNCTION     0.35     1.95     8.44     0  02:22        1.95
  YS02001774           JUNCTION     0.41     2.00     8.43     0  02:22        2.00
  YS02001779           JUNCTION     0.24     1.68     8.37     0  02:14        1.68
  YS02001783           JUNCTION     0.34     1.25     7.39     0  02:25        1.25
  YS02001784           JUNCTION     0.35     1.13     7.20     0  02:23        1.12
  YS02001786           JUNCTION     0.29     0.88     6.91     0  02:25        0.88
  YS02001788           JUNCTION     0.21     0.63     6.60     0  02:23        0.62
  YS02001790           JUNCTION     0.25     0.73     6.38     0  02:25        0.71
  YS02001791           JUNCTION     0.15     0.44     5.91     0  02:25        0.44
  YS02001793           JUNCTION     0.08     0.26     5.09     0  02:27        0.26
  YS02001882           JUNCTION     0.42     1.69     8.40     0  02:23        1.69
  YS02001884           JUNCTION     0.51     1.79     8.40     0  02:25        1.79
  YS02001887           JUNCTION     0.58     1.87     8.41     0  02:25        1.87
  YS02001890           JUNCTION     0.61     1.81     8.32     0  02:13        1.81
  YS02001895           JUNCTION     0.39     1.57     8.32     0  02:13        1.57
  YS02001898           JUNCTION     0.40     1.57     8.31     0  02:13        1.56
  YS02001901           JUNCTION     0.50     1.68     8.29     0  02:13        1.68
  YS02001904           JUNCTION     0.49     1.64     8.27     0  02:13        1.64
  YS02001907           JUNCTION     0.79     1.96     8.25     0  02:13        1.96
  YS02001910           JUNCTION     0.61     2.01     8.52     0  02:25        2.01
  YS02001915           JUNCTION     0.44     2.00     8.72     0  02:24        2.00
  YS02001918           JUNCTION     0.27     1.81     8.88     0  02:14        1.71
  YS02001920           JUNCTION     0.35     2.10     9.11     0  02:14        1.79
  YS02001923           JUNCTION     0.21     2.01     9.27     0  02:14        1.56
  YS02001926           JUNCTION     0.23     1.90     9.35     0  02:14        1.40
  YS02001929           JUNCTION     0.15     1.78     9.47     0  02:14        1.18
  YS02006553           JUNCTION     0.79     1.99     8.28     0  02:25        1.99
  YS02006556           JUNCTION     0.76     1.99     8.30     0  02:25        1.99
  YS02006558           JUNCTION     0.80     2.06     8.33     0  02:25        2.06
  YS02006561           JUNCTION     0.22     0.92     7.58     0  02:25        0.91
  YS02163301           JUNCTION     0.62     1.96     8.47     0  02:25        1.96
  YS02163601           JUNCTION     0.69     2.04     8.43     0  02:16        2.03
  YS02164001           JUNCTION     0.62     1.95     8.41     0  02:16        1.94
  CC-1                 OUTFALL      0.00     0.00     0.00     0  00:00        0.00
  CC-2                 OUTFALL      0.00     0.00     0.00     0  00:00        0.00
  JK-1                 OUTFALL      0.00     0.00     0.00     0  00:00        0.00
  JK-2                 OUTFALL      0.00     0.00     0.00     0  00:00        0.00
  WSC                  OUTFALL      0.19     0.30     0.97     0  03:17        0.30
  CC-storage           STORAGE      0.30     1.12     6.62     0  02:53        1.12
  JK-storage           STORAGE      0.13     2.99     3.79     0  00:00        0.68
  
  
  *******************
  Node Inflow Summary
  *******************
  
  -------------------------------------------------------------------------------------------------
                                  Maximum  Maximum                  Lateral       Total        Flow
                                  Lateral    Total  Time of Max      Inflow      Inflow     Balance
                                   Inflow   Inflow   Occurrence      Volume      Volume       Error
  Node                 Type           LPS      LPS  days hr:min    10^6 ltr    10^6 ltr     Percent
  -------------------------------------------------------------------------------------------------
  WS02003060           JUNCTION     16.53   548.94     0  03:15       0.471        5.56       0.036
  WS02003066           JUNCTION      0.00   531.76     0  03:15           0        5.09       0.030
  WS02003067           JUNCTION      0.00   531.45     0  03:14           0        5.09       0.080
  WS02003069           JUNCTION      0.32   548.69     0  03:15     0.00912        5.56       0.069
  WS02003072           JUNCTION      0.00   546.89     0  03:16           0        5.56       0.132
  WS02003073           JUNCTION      1.82   548.04     0  03:16      0.0519        5.61       0.101
  WS02004401           JUNCTION      0.00   538.25     0  03:14           0        5.19       0.196
  WS02004402           JUNCTION      0.00   538.47     0  03:15           0        5.18       0.199
  WS02004403           JUNCTION      0.00   539.91     0  03:12           0        5.17       0.194
  WS02004404           JUNCTION      0.16   549.40     0  03:12     0.00462        5.16       0.140
  WS02004405           JUNCTION      0.04   594.37     0  03:07     0.00109        5.16       0.172
  WS02004406           JUNCTION      0.00   542.19     0  03:13           0        5.15       0.403
  WS02004407           JUNCTION      0.00   537.07     0  03:13           0        5.13       0.018
  WS02004409           JUNCTION      0.00   536.28     0  03:13           0        5.13       0.048
  WS02004410           JUNCTION      0.00   534.58     0  03:13           0        5.12       0.087
  WS02004411           JUNCTION      0.00   533.18     0  03:14           0        5.12       0.109
  WS02004412           JUNCTION      0.00   532.74     0  03:14           0        5.11       0.146
  WS02004413           JUNCTION      0.00   532.65     0  03:14           0        5.11       0.271
  WS02006109           JUNCTION      1.23   566.88     0  03:01      0.0351        5.23       0.042
  WS02006110           JUNCTION      0.00   566.15     0  03:01           0        5.22       0.111
  WS02006111           JUNCTION      0.00   565.49     0  03:05           0        5.22       0.017
  WS02006112           JUNCTION      0.00   544.47     0  03:05           0        5.22       0.387
  WS02006113           JUNCTION      0.00   572.39     0  01:41           0        5.22       0.034
  WS02006115           JUNCTION      0.00   554.82     0  01:57           0         5.2       0.133
  WS02006116           JUNCTION      0.00   540.30     0  03:10           0        5.19      -0.000
  WS02006228           JUNCTION      0.00   565.06     0  03:01           0        5.19      -0.008
  WS02006229           JUNCTION      0.00   564.27     0  03:01           0         5.2       0.151
  WS02006230           JUNCTION     10.28   594.82     0  03:07       0.293         5.2       0.023
  WS02006231           JUNCTION      0.00   595.81     0  01:56           0         4.9      -0.196
  WS02006232           JUNCTION      0.00   593.75     0  01:56           0        4.92       0.494
  WS02006234           JUNCTION      0.00   586.22     0  01:56           0         4.9      -0.499
  WS02006235           JUNCTION      0.00   572.47     0  02:45           0           5       0.468
  WS02006238           JUNCTION      0.00   423.50     0  03:15           0        3.84      -0.194
  WS02006239           JUNCTION      0.00   424.04     0  02:04           0        3.77      -0.190
  WS02006240           JUNCTION      0.00   421.67     0  01:42           0        3.73      -0.134
  WS02006242           JUNCTION      0.00   421.25     0  01:42           0        3.72      -0.011
  WS02006243           JUNCTION      0.00   425.01     0  01:55           0         3.7      -0.149
  WS02006245           JUNCTION      0.00   457.27     0  01:54           0        3.72       0.611
  WS02006247           JUNCTION      0.00   442.29     0  01:54           0        3.72       0.019
  WS02006248           JUNCTION      0.00   444.37     0  01:54           0        3.74       0.178
  WS02006249           JUNCTION      0.00   476.96     0  01:54           0           4       0.451
  WS02006251           JUNCTION      0.08   410.81     0  03:03     0.00219           4      -0.019
  WS02006252           JUNCTION      0.00   400.00     0  00:00           0        3.99      -0.060
  WS02006256           JUNCTION      0.00   337.34     0  02:40           0         1.8      -3.518
  WSF200               JUNCTION      0.00   531.97     0  03:15           0        5.09       0.007
  YS02001580           JUNCTION      0.00    69.23     0  02:06           0      0.0041       0.614
  YS02001583           JUNCTION      0.00   109.34     0  02:06           0      0.0156      -3.502
  YS02001586           JUNCTION   1080.85  1080.85     0  02:26        2.16        2.18       0.046
  YS02001590           JUNCTION      0.00   318.33     0  02:41           0        1.49      -0.036
  YS02001593           JUNCTION      0.00   318.24     0  02:41           0         1.5       0.015
  YS02001596           JUNCTION      0.00   318.02     0  02:23           0         1.5       0.003
  YS02001600           JUNCTION      0.00   318.26     0  02:41           0         1.5       0.024
  YS02001601           JUNCTION   1866.82  2184.18     0  02:25        2.95        4.45       0.024
  YS02001602           JUNCTION      0.00   508.91     0  02:52           0        2.53       0.023
  YS02001605           JUNCTION      0.00   508.79     0  02:52           0        2.41       0.035
  YS02001607           JUNCTION      0.00   508.95     0  02:52           0        2.41       0.087
  YS02001610           JUNCTION      0.00   951.22     0  02:28           0        2.88       0.087
  YS02001613           JUNCTION      0.00   614.94     0  02:29           0        2.36       0.070
  YS02001616           JUNCTION      0.00   614.76     0  02:29           0        2.36       0.020
  YS02001619           JUNCTION   1921.28  1921.28     0  02:26        3.48        5.36       0.002
  YS02001622           JUNCTION      0.00  1053.88     0  02:28           0        4.82       0.005
  YS02001625           JUNCTION      0.00  1504.75     0  02:28           0        5.15       0.172
  YS02001629           JUNCTION      0.00   978.64     0  02:44           0        4.09       0.028
  YS02001633           JUNCTION   1405.63  1405.63     0  02:25        2.17        5.84       0.061
  YS02001641           JUNCTION      0.00  1355.39     0  02:12           0        5.43       0.054
  YS02001644           JUNCTION   1256.46  1936.14     0  02:25        1.88        7.31       0.047
  YS02001647           JUNCTION      0.00  1737.55     0  02:12           0        6.54       0.008
  YS02001649           JUNCTION      0.00  1997.75     0  02:13           0        8.26       0.005
  YS02001652           JUNCTION      0.00  1247.50     0  02:25           0        1.73      -0.059
  YS02001655           JUNCTION      0.15  1247.88     0  02:25     0.00439        1.73       0.034
  YS02001658           JUNCTION      0.00  1247.58     0  02:25           0        1.72      -0.007
  YS02001661           JUNCTION      0.00  1247.77     0  02:25           0        1.72       0.015
  YS02001664           JUNCTION   1237.58  1237.58     0  02:25        1.72        1.72      -0.006
  YS02001745           JUNCTION    771.43   771.43     0  02:25        1.04        1.04       0.084
  YS02001748           JUNCTION      0.04   776.07     0  02:25     0.00128        1.04      -0.115
  YS02001751           JUNCTION      0.01   776.68     0  02:25    0.000313        1.04       0.006
  YS02001754           JUNCTION      0.26   777.17     0  02:25     0.00741        1.05      -0.111
  YS02001757           JUNCTION      0.00  3595.43     0  02:24           0        12.6       0.046
  YS02001759           JUNCTION   1073.77  1515.42     0  02:25        1.43        3.24      -0.000
  YS02001762           JUNCTION      0.00   827.87     0  02:31           0        1.81       0.006
  YS02001765           JUNCTION      0.00   827.66     0  02:31           0        1.81       0.005
  YS02001767           JUNCTION      0.54   827.03     0  02:31      0.0152        1.81       0.012
  YS02001770           JUNCTION   1520.33  1520.33     0  02:25        2.18        2.22      -0.010
  YS02001774           JUNCTION      0.00   849.98     0  02:26           0       0.419       0.296
  YS02001779           JUNCTION      0.01   849.40     0  02:26    0.000142       0.377      -0.101
  YS02001783           JUNCTION      0.00  1170.80     0  02:24           0        4.53       0.007
  YS02001784           JUNCTION      1.06  1171.43     0  02:24      0.0302        4.56       0.012
  YS02001786           JUNCTION      0.06  1172.14     0  02:24      0.0016        4.56       0.016
  YS02001788           JUNCTION      0.07  1172.04     0  02:24     0.00202        4.56       0.006
  YS02001790           JUNCTION      0.15  1183.07     0  02:23     0.00442        4.57       0.014
  YS02001791           JUNCTION      0.00  1298.41     0  02:25           0        4.57      -0.019
  YS02001793           JUNCTION      0.00  1268.61     0  02:22           0        4.57      -0.034
  YS02001882           JUNCTION      0.00    30.02     0  02:10           0       0.013       5.127
  YS02001884           JUNCTION      0.00    38.31     0  02:08           0      0.0488       5.403
  YS02001887           JUNCTION   1142.01  1144.51     0  02:25        1.49        1.52       0.295
  YS02001890           JUNCTION      0.00  1144.65     0  02:25           0        1.48       0.347
  YS02001895           JUNCTION      0.00   518.18     0  02:30           0        1.25       0.126
  YS02001898           JUNCTION      0.00   517.91     0  02:29           0        1.25       0.031
  YS02001901           JUNCTION      0.00   518.22     0  02:30           0        1.25       0.267
  YS02001904           JUNCTION      0.00   517.90     0  02:30           0        1.25       0.229
  YS02001907           JUNCTION      0.00  2898.61     0  02:25           0        4.58       0.399
  YS02001910           JUNCTION      0.00  1992.50     0  02:25           0        3.25       0.225
  YS02001915           JUNCTION   1353.06  2014.32     0  02:25        2.07        3.27       0.049
  YS02001918           JUNCTION      0.00   663.19     0  02:26           0        1.21       0.011
  YS02001920           JUNCTION      2.87   663.53     0  02:25      0.0818         1.2       0.091
  YS02001923           JUNCTION      0.04   660.26     0  02:25     0.00107        1.11      -0.021
  YS02001926           JUNCTION      0.05   660.22     0  02:25     0.00149         1.1       0.008
  YS02001929           JUNCTION    659.01   659.01     0  02:25        1.09        1.09      -0.037
  YS02006553           JUNCTION      0.00   808.33     0  02:41           0        2.56       0.465
  YS02006556           JUNCTION      0.00   808.55     0  02:41           0        2.57       0.324
  YS02006558           JUNCTION   1559.41  1559.41     0  02:25        2.19        4.64       0.072
  YS02006561           JUNCTION      0.00  1170.41     0  02:23           0        4.53       0.001
  YS02163301           JUNCTION      0.00   980.02     0  02:44           0        4.09       0.044
  YS02163601           JUNCTION      0.11  1355.51     0  02:12     0.00313        5.43       0.095
  YS02164001           JUNCTION      0.00  1355.59     0  02:12           0        5.43       0.049
  CC-1                 OUTFALL       0.00   683.00     0  00:00           0        5.39       0.000
  CC-2                 OUTFALL       0.00   683.00     0  00:00           0        5.39       0.000
  JK-1                 OUTFALL       0.00  1000.00     0  00:00           0         1.5       0.000
  JK-2                 OUTFALL       0.00  1000.00     0  00:00           0         1.5       0.000
  WSC                  OUTFALL       0.00   547.38     0  03:17           0         5.6       0.000
  CC-storage           STORAGE       0.00  3595.32     0  02:25           0        14.8      -0.337
  JK-storage           STORAGE       0.00  1389.96     0  02:27           0        4.72      -1.539
  
  
  **********************
  Node Surcharge Summary
  **********************
  
  Surcharging occurs when water rises above the top of the highest conduit.
  ---------------------------------------------------------------------
                                               Max. Height   Min. Depth
                                   Hours       Above Crown    Below Rim
  Node                 Type      Surcharged         Meters       Meters
  ---------------------------------------------------------------------
  WS02004404           JUNCTION        0.01          0.010        2.770
  WS02006109           JUNCTION        2.17          0.462        1.358
  WS02006110           JUNCTION        0.54          0.421        1.429
  WS02006112           JUNCTION        1.53          0.120        1.560
  WS02006228           JUNCTION        2.15          0.635        1.565
  WS02006229           JUNCTION        2.18          0.735        1.715
  WS02006230           JUNCTION        0.58          0.816        0.754
  WS02006231           JUNCTION        1.19          1.530        0.000
  WS02006232           JUNCTION        2.27          1.480        0.000
  WS02006234           JUNCTION        1.65          1.240        0.000
  WS02006235           JUNCTION        1.91          1.290        0.000
  WS02006238           JUNCTION        2.11          1.430        0.000
  WS02006239           JUNCTION        2.08          1.290        0.000
  WS02006240           JUNCTION        2.16          1.390        0.000
  WS02006242           JUNCTION        2.28          0.820        0.000
  WS02006243           JUNCTION        2.17          0.770        0.000
  WS02006245           JUNCTION        2.16          0.850        0.000
  WS02006247           JUNCTION        2.19          0.760        0.000
  WS02006248           JUNCTION        2.14          0.380        0.000
  WS02006249           JUNCTION        2.16          0.390        0.000
  WS02006251           JUNCTION        1.55          0.368        0.812
  WS02006252           JUNCTION        2.77          1.100        0.000
  WS02006256           JUNCTION        5.97          2.050        0.000
  YS02001580           JUNCTION        0.73          0.450        0.000
  YS02001583           JUNCTION        0.74          0.500        0.000
  YS02001586           JUNCTION        0.84          0.510        0.000
  YS02001590           JUNCTION        0.93          0.727        0.023
  YS02001593           JUNCTION        0.93          0.678        0.162
  YS02001596           JUNCTION        1.05          0.930        0.140
  YS02001600           JUNCTION        1.20          1.190        0.000
  YS02001601           JUNCTION        1.57          1.440        0.000
  YS02001602           JUNCTION        1.45          1.270        0.000
  YS02001605           JUNCTION        1.39          1.180        0.000
  YS02001607           JUNCTION        0.85          0.646        0.034
  YS02001610           JUNCTION        0.89          0.680        0.000
  YS02001613           JUNCTION        0.85          0.680        0.020
  YS02001616           JUNCTION        0.80          0.610        0.000
  YS02001619           JUNCTION        0.78          0.610        0.000
  YS02001622           JUNCTION        0.78          0.584        0.036
  YS02001625           JUNCTION        0.99          0.780        0.000
  YS02001629           JUNCTION        0.67          0.470        0.000
  YS02001633           JUNCTION        0.99          1.028        0.032
  YS02001641           JUNCTION        0.86          0.951        0.149
  YS02001644           JUNCTION        0.79          0.920        0.000
  YS02001647           JUNCTION        0.52          0.765        0.135
  YS02001649           JUNCTION        0.57          1.006        0.044
  YS02001652           JUNCTION        0.42          0.845        0.285
  YS02001655           JUNCTION        0.34          0.703        0.497
  YS02001658           JUNCTION        0.26          0.490        0.810
  YS02001661           JUNCTION        0.10          0.244        1.146
  YS02001748           JUNCTION        0.17          0.584        0.606
  YS02001751           JUNCTION        0.28          0.571        0.629
  YS02001754           JUNCTION        0.34          0.694        0.456
  YS02001757           JUNCTION        0.55          1.048        0.162
  YS02001759           JUNCTION        0.48          1.076        0.134
  YS02001762           JUNCTION        0.46          1.033        0.117
  YS02001765           JUNCTION        0.43          0.991        0.109
  YS02001767           JUNCTION        0.41          0.964        0.066
  YS02001770           JUNCTION        0.41          0.920        0.000
  YS02001774           JUNCTION        0.45          1.003        0.047
  YS02001779           JUNCTION        0.35          0.680        0.000
  YS02001783           JUNCTION        0.64          0.453        1.147
  YS02001784           JUNCTION        0.62          0.334        1.156
  YS02001786           JUNCTION        0.50          0.083        1.347
  YS02001882           JUNCTION        0.58          0.687        0.143
  YS02001884           JUNCTION        0.59          0.725        0.145
  YS02001887           JUNCTION        0.63          0.822        0.128
  YS02001890           JUNCTION        0.65          0.760        0.000
  YS02001895           JUNCTION        0.57          0.568        0.182
  YS02001898           JUNCTION        0.56          0.541        0.199
  YS02001901           JUNCTION        0.62          0.682        0.188
  YS02001904           JUNCTION        0.61          0.642        0.208
  YS02001907           JUNCTION        0.92          0.950        0.000
  YS02001910           JUNCTION        0.68          1.014        0.086
  YS02001915           JUNCTION        0.58          1.000        0.000
  YS02001918           JUNCTION        0.49          0.810        0.000
  YS02001920           JUNCTION        0.50          1.100        0.040
  YS02001923           JUNCTION        0.19          0.803        0.017
  YS02001926           JUNCTION        0.22          0.900        0.000
  YS02001929           JUNCTION        0.09          0.780        0.000
  YS02006553           JUNCTION        0.94          0.992        0.198
  YS02006556           JUNCTION        0.79          0.949        0.401
  YS02006558           JUNCTION        0.77          0.963        0.437
  YS02006561           JUNCTION        0.45          0.123        1.027
  YS02163301           JUNCTION        0.97          0.957        0.073
  YS02163601           JUNCTION        1.03          1.036        0.044
  YS02164001           JUNCTION        0.88          0.952        0.148
  
  
  *********************
  Node Flooding Summary
  *********************
  
  Flooding refers to all water that overflows a node, whether it ponds or not.
  --------------------------------------------------------------------------
                                                             Total   Maximum
                                 Maximum   Time of Max       Flood    Ponded
                        Hours       Rate    Occurrence      Volume     Depth
  Node                 Flooded       LPS   days hr:min    10^6 ltr    Meters
  --------------------------------------------------------------------------
  WS02006231              0.01     74.53      0  02:45       0.000     0.000
  WS02006232              0.01     37.55      0  02:33       0.000     0.000
  WS02006234              0.01    150.02      0  02:45       0.001     0.000
  WS02006235              0.01     53.84      0  02:24       0.000     0.000
  WS02006238              0.01     25.09      0  02:33       0.000     0.000
  WS02006239              0.01      4.84      0  02:33       0.000     0.000
  WS02006240              0.01     10.55      0  02:41       0.000     0.000
  WS02006242              0.02     32.47      0  02:33       0.001     0.000
  WS02006243              0.01      9.02      0  02:45       0.000     0.000
  WS02006245              0.01      5.51      0  02:41       0.000     0.000
  WS02006247              0.01      2.94      0  02:33       0.000     0.000
  WS02006248              0.22     34.65      0  02:33       0.011     0.000
  WS02006249              1.37     85.01      0  03:05       0.236     0.000
  WS02006252              0.01    257.48      0  01:53       0.000     0.000
  WS02006256              1.67    318.22      0  02:40       0.657     0.000
  YS02001580              0.01     42.56      0  02:06       0.000     0.000
  YS02001583              0.01     25.26      0  02:07       0.000     0.000
  YS02001586              0.60    762.84      0  02:26       0.668     0.000
  YS02001600              0.01      0.18      0  02:41       0.000     0.000
  YS02001601              0.76   1786.24      0  02:25       1.922     0.000
  YS02001602              0.56     61.96      0  02:30       0.116     0.000
  YS02001605              0.01      0.10      0  02:33       0.000     0.000
  YS02001610              0.51    951.10      0  02:28       0.997     0.000
  YS02001616              0.06      1.87      0  02:22       0.000     0.000
  YS02001619              0.11    259.82      0  02:26       0.057     0.000
  YS02001625              0.44   1504.65      0  02:28       1.459     0.000
  YS02001629              0.23    284.67      0  02:25       0.087     0.000
  YS02001644              0.24   1868.68      0  02:25       0.758     0.000
  YS02001770              0.06    244.53      0  02:25       0.028     0.000
  YS02001779              0.22    849.18      0  02:26       0.359     0.000
  YS02001890              0.24    629.14      0  02:25       0.230     0.000
  YS02001907              0.43   2898.31      0  02:25       2.091     0.000
  YS02001915              0.03     33.21      0  02:25       0.001     0.000
  YS02001918              0.01     64.23      0  02:14       0.000     0.000
  YS02001926              0.01     10.85      0  02:14       0.000     0.000
  YS02001929              0.01    125.48      0  02:14       0.000     0.000
  
  
  **********************
  Storage Volume Summary
  **********************
  
  ------------------------------------------------------------------------------------------------
                         Average    Avg   Evap  Exfil     Maximum    Max    Time of Max    Maximum
                          Volume   Pcnt   Pcnt   Pcnt      Volume   Pcnt     Occurrence    Outflow
  Storage Unit           1000 m³   Full   Loss   Loss     1000 m³   Full    days hr:min        LPS
  ------------------------------------------------------------------------------------------------
  CC-storage               0.824   12.8    0.0    0.0       3.121   48.7       0  02:53    1783.53
  JK-storage               0.007    2.3    0.0    0.0       0.150   51.6       0  00:00    2300.00
  
  
  ***********************
  Outfall Loading Summary
  ***********************
  
  -----------------------------------------------------------
                         Flow       Avg       Max       Total
                         Freq      Flow      Flow      Volume
  Outfall Node           Pcnt       LPS       LPS    10^6 ltr
  -----------------------------------------------------------
  CC-1                  47.76    683.00    683.00       5.391
  CC-2                  47.76    683.00    683.00       5.391
  JK-1                   9.60    999.66   1000.00       1.502
  JK-2                   9.60    999.66   1000.00       1.502
  WSC                   99.94    279.86    547.38       5.600
  -----------------------------------------------------------
  System                42.93   3645.17   3900.67      19.386
  
  
  ********************
  Link Flow Summary
  ********************
  
  -----------------------------------------------------------------------------
                                 Maximum  Time of Max   Maximum    Max/    Max/
                                  |Flow|   Occurrence   |Veloc|    Full    Full
  Link                 Type          LPS  days hr:min     m/sec    Flow   Depth
  -----------------------------------------------------------------------------
  1                    CONDUIT    547.38     0  03:17      2.82    0.19    0.30
  WS02003060WS02003069 CONDUIT    548.37     0  03:15      1.64    0.21    0.34
  WS02003066WSF200     CONDUIT    531.97     0  03:15      2.84    0.09    0.22
  WS02003067WS02003066 CONDUIT    531.76     0  03:15      1.20    0.17    0.41
  WS02003069WS02003072 CONDUIT    546.89     0  03:16      1.36    0.26    0.38
  WS02003072WS02003073 CONDUIT    546.22     0  03:16      1.43    1.18    0.37
  WS02004401WS02004402 CONDUIT    538.47     0  03:15      1.22    0.65    0.88
  WS02004402WS02004403 CONDUIT    539.91     0  03:12      1.24    0.78    0.91
  WS02004403WS02004404 CONDUIT    549.24     0  03:12      1.24    0.40    0.96
  WS02004404WS02004405 CONDUIT    594.33     0  03:07      1.45    5.82    0.98
  WS02004405WS02004406 CONDUIT    542.19     0  03:13      1.46    1.07    0.96
  WS02004406WS02004407 CONDUIT    537.07     0  03:13      1.04    0.24    0.63
  WS02004407WS02004409 CONDUIT    536.28     0  03:13      1.59    0.19    0.48
  WS02004409WS02004410 CONDUIT    534.58     0  03:13      1.06    0.69    0.67
  WS02004410WS02004411 CONDUIT    533.18     0  03:14      1.12    0.73    0.68
  WS02004411WS02004412 CONDUIT    532.74     0  03:14      1.22    0.76    0.69
  WS02004412WS02004413 CONDUIT    532.65     0  03:14      1.22    0.36    0.77
  WS02004413WS02003067 CONDUIT    531.45     0  03:14      1.10    0.23    0.59
  WS02006109WS02006110 CONDUIT    566.15     0  03:01      1.13    1.09    1.00
  WS02006110WS02006113 CONDUIT    572.39     0  01:41      1.38    0.52    0.79
  WS02006111WS02006112 CONDUIT    544.47     0  03:05      1.95    0.26    0.67
  WS02006112WS02006115 CONDUIT    554.82     0  01:57      0.90    0.33    0.88
  WS02006113WS02006111 CONDUIT    565.49     0  03:05      2.47    0.68    0.46
  WS02006115WS02006116 CONDUIT    540.30     0  03:10      1.29    0.69    0.78
  WS02006116WS02004401 CONDUIT    538.25     0  03:14      1.21    0.74    0.86
  WS02006228WS02006109 CONDUIT    565.65     0  03:01      1.13    2.47    1.00
  WS02006229WS02006228 CONDUIT    565.06     0  03:01      1.12    1.87    1.00
  WS02006230WS02006229 CONDUIT    564.27     0  03:01      1.47   12.56    1.00
  WS02006231WS02006230 CONDUIT    584.54     0  03:07      1.59    8.87    1.00
  WS02006232WS02006231 CONDUIT    595.81     0  01:56      1.57    1.25    1.00
  WS02006234WS02006232 CONDUIT    593.75     0  01:56      1.54    1.20    1.00
  WS02006235WS02006234 CONDUIT    586.22     0  01:56      1.52    6.18    1.00
  WS02006238WS02006235 CONDUIT    425.19     0  03:07      1.45    0.95    1.00
  WS02006239WS02006238 CONDUIT    423.50     0  03:15      1.21    1.36    1.00
  WS02006240WS02006239 CONDUIT    424.04     0  02:04      1.30    1.33    1.00
  WS02006242WS02006240 CONDUIT    421.67     0  01:42      1.17    1.67    1.00
  WS02006243WS02006242 CONDUIT    421.25     0  01:42      1.42    0.90    1.00
  WS02006245WS02006243 CONDUIT    425.01     0  01:55      1.45    1.26    1.00
  WS02006247WS02006245 CONDUIT    457.27     0  01:54      1.43    3.63    1.00
  WS02006248WS02006247 CONDUIT    442.29     0  01:54      1.45    0.96    1.00
  WS02006249WS02006248 CONDUIT    444.37     0  01:54      1.39    2.43    1.00
  WS02006251WS02006249 CONDUIT    476.96     0  01:54      2.00    1.38    1.00
  WS02006252WS02006251 CONDUIT    410.73     0  03:03     26.20    1.51    1.00
  WS02006256WS02006235 CONDUIT    288.91     0  00:00      4.23    3.06    1.00
  WSF200WS02003060     CONDUIT    532.41     0  03:15      2.06    0.12    0.28
  YS02001580YS02001583 CONDUIT     69.23     0  02:06      0.49    0.27    1.00
  YS02001583YS02001586 CONDUIT    109.34     0  02:06      0.46    0.17    1.00
  YS02001586YS02001590 CONDUIT    318.33     0  02:41      1.26    0.56    1.00
  YS02001590YS02001593 CONDUIT    318.24     0  02:41      1.13    2.00    1.00
  YS02001593YS02001596 CONDUIT    318.02     0  02:23      1.80    0.50    1.00
  YS02001596YS02001600 CONDUIT    318.26     0  02:41      1.29    0.62    1.00
  YS02001600YS02001601 CONDUIT    318.21     0  02:41      1.13    0.55    1.00
  YS02001601YS02001602 CONDUIT    508.91     0  02:52      1.80    1.84    1.00
  YS02001602YS02001605 CONDUIT    508.79     0  02:52      1.80   10.77    1.00
  YS02001605YS02001607 CONDUIT    508.95     0  02:52      1.80    2.79    1.00
  YS02001607YS02001610 CONDUIT    510.16     0  02:52      0.65    0.49    1.00
  YS02001610YS02001613 CONDUIT    614.81     0  02:28      0.78    0.71    1.00
  YS02001613YS02001616 CONDUIT    614.94     0  02:29      0.78    0.53    1.00
  YS02001616YS02001619 CONDUIT    614.76     0  02:29      0.78    1.07    1.00
  YS02001619YS02001622 CONDUIT   1053.88     0  02:28      1.34    1.55    1.00
  YS02001622YS02001625 CONDUIT   1053.66     0  02:27      1.34    0.56    1.00
  YS02001625YS02001629 CONDUIT    978.64     0  02:44      1.25    0.47    1.00
  YS02001629YS02163301 CONDUIT    980.02     0  02:44      1.25    1.21    1.00
  YS02001633YS02163601 CONDUIT   1355.40     0  02:12      1.73    1.42    1.00
  YS02001641YS02001644 CONDUIT   1355.30     0  02:12      1.73    4.38    1.00
  YS02001644YS02001647 CONDUIT   1737.55     0  02:12      2.21    1.02    1.00
  YS02001647YS02001649 CONDUIT   1746.40     0  02:12      2.27    0.92    1.00
  YS02001649YS02001757 CONDUIT   1997.34     0  02:13      2.54    1.21    1.00
  YS02001652YS02001649 CONDUIT   1247.16     0  02:25      1.59    0.62    1.00
  YS02001655YS02001652 CONDUIT   1247.50     0  02:25      1.59    0.61    1.00
  YS02001658YS02001655 CONDUIT   1247.72     0  02:25      1.79    0.53    1.00
  YS02001661YS02001658 CONDUIT   1247.58     0  02:25      2.25    0.49    1.00
  YS02001664YS02001661 CONDUIT   1247.77     0  02:25      2.23    0.39    0.91
  YS02001745YS02001748 CONDUIT    776.03     0  02:25      2.09    0.30    0.96
  YS02001748YS02001751 CONDUIT    776.67     0  02:25      1.62    0.39    1.00
  YS02001751YS02001754 CONDUIT    776.91     0  02:25      1.32    0.37    1.00
  YS02001754YS02001757 CONDUIT    776.96     0  02:25      0.99    0.31    1.00
  YS02001757CaochengTiaoxuchi CONDUIT   3595.32     0  02:25      6.63    1.56    1.00
  YS02001759YS02001757 CONDUIT   1516.59     0  02:25      1.93    1.08    1.00
  YS02001762YS02001759 CONDUIT    828.51     0  02:31      1.05    0.95    1.00
  YS02001765YS02001762 CONDUIT    827.87     0  02:31      1.05    0.78    1.00
  YS02001767YS02001765 CONDUIT    827.66     0  02:31      1.05    1.04    1.00
  YS02001770YS02001767 CONDUIT    826.49     0  02:31      1.05    3.27    1.00
  YS02001774YS02001770 CONDUIT    849.98     0  02:26      1.08    0.54    1.00
  YS02001779YS02001774 CONDUIT    849.40     0  02:26      1.08    0.43    1.00
  YS02001783YS02001784 CONDUIT   1170.37     0  02:24      2.33    1.61    1.00
  YS02001784YS02001785 CONDUIT   1172.09     0  02:24      2.33    2.73    1.00
  YS02001786YS02001788 CONDUIT   1171.97     0  02:24      2.49    2.26    0.89
  YS02001788YS02001790 CONDUIT   1182.92     0  02:23      2.72    0.87    0.84
  YS02001790YS02001791 CONDUIT   1298.41     0  02:25      3.43    1.41    0.71
  YS02001791YS02001793 CONDUIT   1268.61     0  02:22      6.75    0.54    0.43
  YS02001793JiankangQianchi CONDUIT   1389.96     0  02:27     21.88    0.11    0.50
  YS02001882YS02001884 CONDUIT     30.02     0  02:10      0.14    0.03    1.00
  YS02001884YS02001887 CONDUIT     38.31     0  02:08      0.10    0.05    1.00
  YS02001887YS02001890 CONDUIT   1144.65     0  02:25      1.46    1.96    1.00
  YS02001890YS02001895 CONDUIT    518.18     0  02:30      0.66    0.24    1.00
  YS02001895YS02001898 CONDUIT    517.91     0  02:29      0.66    0.90    1.00
  YS02001898YS02001901 CONDUIT    518.22     0  02:30      0.66    0.33    1.00
  YS02001901YS02001904 CONDUIT    517.90     0  02:30      0.66    0.80    1.00
  YS02001904YS02001907 CONDUIT    518.75     0  02:25      0.66    0.18    1.00
  YS02001907YS02006553 CONDUIT    808.33     0  02:41      0.90    0.95    1.00
  YS02001910YS02001907 CONDUIT   1991.97     0  02:25      2.54    1.12    1.00
  YS02001915YS02001910 CONDUIT   1992.50     0  02:25      2.54    0.99    1.00
  YS02001918YS02001915 CONDUIT    663.89     0  02:26      0.85    0.37    1.00
  YS02001920YS02001918 CONDUIT    663.19     0  02:26      0.84    0.64    1.00
  YS02001923YS02001920 CONDUIT    660.66     0  02:25      0.84    0.30    1.00
  YS02001926YS02001923 CONDUIT    660.22     0  02:25      0.94    0.94    1.00
  YS02001929YS02001926 CONDUIT    660.16     0  02:25      1.07    0.31    1.00
  YS02006553YS02006556 CONDUIT    808.55     0  02:41      1.03    0.69    1.00
  YS02006556YS02006558 CONDUIT    809.80     0  02:41      1.03    0.64    1.00
  YS02006558YS02006561 CONDUIT   1170.41     0  02:23      4.14    2.59    1.00
  YS02006561YS02001783 CONDUIT   1170.80     0  02:24      2.33    0.61    1.00
  YS02163301YS02001633 CONDUIT    980.66     0  02:44      1.25    0.92    1.00
  YS02163601YS02164001 CONDUIT   1355.59     0  02:12      1.73    1.20    1.00
  YS02164001YS02001641 CONDUIT   1355.39     0  02:12      1.73    1.85    1.00
  CC-R1                PUMP       683.00     0  00:00              1.00
  CC-R2                PUMP       683.00     0  00:00              1.00
  CC-S1                PUMP       200.00     0  00:00              1.00
  CC-S2                PUMP       200.00     0  00:00              1.00
  JK-R1                PUMP      1000.00     0  00:00              1.00
  JK-R2                PUMP      1000.00     0  00:00              1.00
  JK-S                 PUMP       300.00     0  00:00              1.00
  
  
  ***************************
  Flow Classification Summary
  ***************************
  
  -------------------------------------------------------------------------------------
                      Adjusted    ---------- Fraction of Time in Flow Class ---------- 
                       /Actual         Up    Down  Sub   Sup   Up    Down  Norm  Inlet 
  Conduit               Length    Dry  Dry   Dry   Crit  Crit  Crit  Crit  Ltd   Ctrl  
  -------------------------------------------------------------------------------------
  1                       1.00   0.00  0.00  0.00  0.00  1.00  0.00  0.00  0.40  0.00
  WS02003060WS02003069    1.00   0.00  0.00  0.00  0.97  0.03  0.00  0.00  0.68  0.00
  WS02003066WSF200        1.00   0.05  0.00  0.00  0.00  0.95  0.00  0.00  0.82  0.00
  WS02003067WS02003066    1.00   0.05  0.00  0.00  0.95  0.00  0.00  0.00  0.00  0.00
  WS02003069WS02003072    1.00   0.00  0.00  0.00  0.99  0.01  0.00  0.00  0.72  0.00
  WS02003072WS02003073    1.00   0.00  0.00  0.00  0.00  0.00  0.00  1.00  0.00  0.00
  WS02004401WS02004402    1.00   0.02  0.00  0.00  0.98  0.00  0.00  0.00  0.00  0.00
  WS02004402WS02004403    1.00   0.02  0.00  0.00  0.98  0.00  0.00  0.00  0.00  0.00
  WS02004403WS02004404    1.00   0.00  0.03  0.00  0.97  0.00  0.00  0.00  0.00  0.00
  WS02004404WS02004405    1.00   0.00  0.00  0.00  1.00  0.00  0.00  0.00  0.02  0.00
  WS02004405WS02004406    1.00   0.00  0.00  0.00  1.00  0.00  0.00  0.00  0.00  0.00
  WS02004406WS02004407    1.00   0.00  0.03  0.00  0.97  0.00  0.00  0.00  0.00  0.00
  WS02004407WS02004409    1.00   0.03  0.00  0.00  0.95  0.02  0.00  0.00  0.95  0.00
  WS02004409WS02004410    1.00   0.03  0.00  0.00  0.96  0.00  0.00  0.00  0.00  0.00
  WS02004410WS02004411    1.00   0.04  0.00  0.00  0.96  0.00  0.00  0.00  0.00  0.00
  WS02004411WS02004412    1.00   0.04  0.00  0.00  0.96  0.00  0.00  0.00  0.00  0.00
  WS02004412WS02004413    1.00   0.04  0.00  0.00  0.96  0.00  0.00  0.00  0.00  0.00
  WS02004413WS02003067    1.00   0.04  0.01  0.00  0.00  0.00  0.95  0.00  0.00  0.00
  WS02006109WS02006110    1.00   0.00  0.01  0.00  0.98  0.00  0.01  0.00  0.00  0.00
  WS02006110WS02006113    1.00   0.01  0.01  0.00  0.98  0.00  0.00  0.00  0.00  0.00
  WS02006111WS02006112    1.00   0.02  0.00  0.00  0.98  0.00  0.00  0.00  0.98  0.00
  WS02006112WS02006115    1.00   0.02  0.00  0.00  0.97  0.00  0.00  0.00  0.00  0.00
  WS02006113WS02006111    1.00   0.02  0.00  0.00  0.00  0.98  0.00  0.00  0.17  0.00
  WS02006115WS02006116    1.00   0.02  0.00  0.00  0.97  0.00  0.00  0.01  0.00  0.00
  WS02006116WS02004401    1.00   0.02  0.00  0.00  0.98  0.00  0.00  0.00  0.00  0.00
  WS02006228WS02006109    1.00   0.00  0.00  0.00  1.00  0.00  0.00  0.00  0.01  0.00
  WS02006229WS02006228    1.00   0.00  0.00  0.00  0.99  0.00  0.00  0.01  0.00  0.00
  WS02006230WS02006229    1.00   0.00  0.00  0.00  0.99  0.00  0.00  0.01  0.02  0.00
  WS02006231WS02006230    1.00   0.00  0.00  0.00  0.29  0.00  0.70  0.00  0.00  0.00
  WS02006232WS02006231    1.00   0.00  0.00  0.00  0.98  0.00  0.02  0.00  0.00  0.00
  WS02006234WS02006232    1.00   0.00  0.00  0.00  1.00  0.00  0.00  0.00  0.05  0.00
  WS02006235WS02006234    1.00   0.00  0.00  0.00  0.92  0.00  0.08  0.00  0.00  0.00
  WS02006238WS02006235    1.00   0.00  0.00  0.00  1.00  0.00  0.00  0.00  0.00  0.00
  WS02006239WS02006238    1.00   0.00  0.00  0.00  1.00  0.00  0.00  0.00  0.22  0.00
  WS02006240WS02006239    1.00   0.00  0.00  0.00  0.67  0.00  0.00  0.33  0.05  0.00
  WS02006242WS02006240    1.00   0.00  0.00  0.00  0.99  0.00  0.01  0.00  0.02  0.00
  WS02006243WS02006242    1.00   0.00  0.00  0.00  0.99  0.00  0.00  0.01  0.56  0.00
  WS02006245WS02006243    1.00   0.00  0.00  0.00  0.64  0.00  0.00  0.36  0.02  0.00
  WS02006247WS02006245    1.00   0.00  0.00  0.00  0.98  0.00  0.00  0.01  0.00  0.00
  WS02006248WS02006247    1.00   0.00  0.00  0.00  0.99  0.00  0.00  0.01  0.25  0.00
  WS02006249WS02006248    1.00   0.00  0.00  0.00  0.42  0.00  0.58  0.00  0.00  0.00
  WS02006251WS02006249    1.00   0.00  0.00  0.00  0.99  0.00  0.00  0.00  0.59  0.00
  WS02006252WS02006251    1.00   0.00  0.52  0.00  0.20  0.00  0.28  0.00  0.00  0.00
  WS02006256WS02006235    1.00   0.00  0.00  0.00  0.98  0.02  0.00  0.00  0.00  0.00
  WSF200WS02003060        1.00   0.00  0.05  0.00  0.33  0.62  0.00  0.00  0.63  0.00
  YS02001580YS02001583    1.00   0.26  0.53  0.00  0.21  0.00  0.00  0.00  0.62  0.00
  YS02001583YS02001586    1.00   0.39  0.34  0.00  0.26  0.00  0.00  0.00  0.62  0.00
  YS02001586YS02001590    1.00   0.13  0.00  0.00  0.47  0.04  0.00  0.36  0.39  0.00
  YS02001590YS02001593    1.00   0.13  0.01  0.00  0.13  0.00  0.73  0.00  0.00  0.00
  YS02001593YS02001596    1.00   0.13  0.00  0.00  0.15  0.01  0.00  0.70  0.02  0.00
  YS02001596YS02001600    1.00   0.14  0.00  0.00  0.22  0.02  0.00  0.63  0.05  0.00
  YS02001600YS02001601    1.00   0.13  0.01  0.00  0.86  0.00  0.00  0.00  0.58  0.00
  YS02001601YS02001602    1.00   0.13  0.01  0.00  0.87  0.00  0.00  0.00  0.00  0.00
  YS02001602YS02001605    1.00   0.14  0.00  0.00  0.86  0.00  0.00  0.00  0.00  0.00
  YS02001605YS02001607    1.00   0.14  0.00  0.00  0.86  0.00  0.00  0.00  0.00  0.00
  YS02001607YS02001610    1.00   0.13  0.01  0.00  0.86  0.00  0.00  0.00  0.01  0.00
  YS02001610YS02001613    1.00   0.13  0.00  0.00  0.87  0.00  0.00  0.00  0.00  0.00
  YS02001613YS02001616    1.00   0.13  0.00  0.00  0.87  0.00  0.00  0.00  0.00  0.00
  YS02001616YS02001619    1.00   0.13  0.00  0.00  0.87  0.00  0.00  0.00  0.00  0.00
  YS02001619YS02001622    1.00   0.13  0.00  0.00  0.87  0.00  0.00  0.00  0.26  0.00
  YS02001622YS02001625    1.00   0.13  0.00  0.00  0.87  0.00  0.00  0.00  0.04  0.00
  YS02001625YS02001629    1.00   0.13  0.04  0.00  0.18  0.00  0.65  0.00  0.00  0.00
  YS02001629YS02163301    1.00   0.15  0.01  0.00  0.84  0.00  0.00  0.00  0.00  0.00
  YS02001633YS02163601    1.00   0.00  0.01  0.00  0.99  0.00  0.00  0.00  0.15  0.00
  YS02001641YS02001644    1.00   0.00  0.01  0.00  0.99  0.00  0.00  0.00  0.00  0.00
  YS02001644YS02001647    1.00   0.00  0.17  0.00  0.83  0.00  0.00  0.00  0.00  0.00
  YS02001647YS02001649    1.00   0.00  0.17  0.00  0.51  0.32  0.00  0.00  0.54  0.00
  YS02001649YS02001757    1.00   0.00  0.00  0.00  0.80  0.20  0.00  0.00  0.63  0.00
  YS02001652YS02001649    1.00   0.00  0.00  0.00  0.97  0.03  0.00  0.00  0.72  0.00
  YS02001655YS02001652    1.00   0.00  0.00  0.00  0.20  0.02  0.00  0.78  0.09  0.00
  YS02001658YS02001655    1.00   0.00  0.14  0.00  0.62  0.24  0.00  0.00  0.72  0.00
  YS02001661YS02001658    1.00   0.14  0.00  0.00  0.45  0.41  0.00  0.00  0.71  0.00
  YS02001664YS02001661    1.00   0.13  0.00  0.00  0.73  0.14  0.00  0.00  0.84  0.00
  YS02001745YS02001748    1.00   0.00  0.00  0.00  0.05  0.01  0.00  0.93  0.02  0.00
  YS02001748YS02001751    1.00   0.00  0.00  0.00  0.77  0.23  0.00  0.00  0.78  0.00
  YS02001751YS02001754    1.00   0.00  0.00  0.00  0.14  0.01  0.00  0.85  0.05  0.00
  YS02001754YS02001757    1.00   0.00  0.00  0.00  1.00  0.00  0.00  0.00  0.83  0.00
  YS02001757CaochengTiaoxuchi    1.00   0.00  0.00  0.00  0.16  0.84  0.00  0.00  0.16  0.00
  YS02001759YS02001757    1.00   0.00  0.00  0.00  1.00  0.00  0.00  0.00  0.63  0.00
  YS02001762YS02001759    1.00   0.00  0.00  0.00  1.00  0.00  0.00  0.00  0.06  0.00
  YS02001765YS02001762    1.00   0.00  0.00  0.00  1.00  0.00  0.00  0.00  0.71  0.00
  YS02001767YS02001765    1.00   0.00  0.00  0.00  1.00  0.00  0.00  0.00  0.00  0.00
  YS02001770YS02001767    1.00   0.00  0.00  0.00  1.00  0.00  0.00  0.00  0.00  0.00
  YS02001774YS02001770    1.00   0.00  0.13  0.00  0.72  0.00  0.15  0.00  0.03  0.00
  YS02001779YS02001774    1.00   0.00  0.00  0.00  1.00  0.00  0.00  0.00  0.77  0.00
  YS02001783YS02001784    1.00   0.00  0.18  0.00  0.82  0.00  0.00  0.00  0.54  0.00
  YS02001784YS02001785    1.00   0.00  0.00  0.00  1.00  0.00  0.00  0.00  0.16  0.00
  YS02001786YS02001788    1.00   0.00  0.00  0.00  0.79  0.21  0.00  0.00  0.00  0.00
  YS02001788YS02001790    1.00   0.00  0.00  0.00  0.21  0.79  0.00  0.00  0.79  0.00
  YS02001790YS02001791    1.00   0.00  0.00  0.00  0.01  0.99  0.00  0.00  0.16  0.00
  YS02001791YS02001793    1.00   0.00  0.00  0.00  0.00  1.00  0.00  0.00  0.01  0.00
  YS02001793JiankangQianchi    1.00   0.00  0.00  0.00  0.43  0.57  0.00  0.00  0.82  0.00
  YS02001882YS02001884    1.00   0.15  0.01  0.00  0.84  0.00  0.00  0.00  0.00  0.00
  YS02001884YS02001887    1.00   0.06  0.05  0.00  0.89  0.00  0.00  0.00  0.00  0.00
  YS02001887YS02001890    1.00   0.00  0.00  0.00  0.97  0.00  0.03  0.00  0.00  0.00
  YS02001890YS02001895    1.00   0.00  0.16  0.00  0.84  0.00  0.00  0.00  0.00  0.00
  YS02001895YS02001898    1.00   0.16  0.00  0.00  0.82  0.00  0.02  0.00  0.00  0.00
  YS02001898YS02001901    1.00   0.16  0.00  0.00  0.84  0.00  0.00  0.00  0.01  0.00
  YS02001901YS02001904    1.00   0.16  0.00  0.00  0.84  0.00  0.00  0.00  0.00  0.00
  YS02001904YS02001907    1.00   0.00  0.16  0.00  0.84  0.00  0.00  0.00  0.00  0.00
  YS02001907YS02006553    1.00   0.00  0.02  0.00  0.98  0.00  0.00  0.00  0.00  0.00
  YS02001910YS02001907    1.00   0.00  0.00  0.00  0.97  0.00  0.00  0.03  0.12  0.00
  YS02001915YS02001910    1.00   0.00  0.00  0.00  0.97  0.03  0.00  0.00  0.15  0.00
  YS02001918YS02001915    1.00   0.00  0.01  0.00  0.98  0.02  0.00  0.00  0.72  0.00
  YS02001920YS02001918    1.00   0.00  0.01  0.00  0.99  0.00  0.00  0.00  0.00  0.00
  YS02001923YS02001920    1.00   0.00  0.00  0.00  1.00  0.00  0.00  0.00  0.91  0.00
  YS02001926YS02001923    1.00   0.00  0.07  0.00  0.07  0.00  0.85  0.00  0.00  0.00
  YS02001929YS02001926    1.00   0.00  0.13  0.00  0.87  0.00  0.00  0.00  0.81  0.00
  YS02006553YS02006556    1.00   0.01  0.00  0.00  0.99  0.00  0.00  0.00  0.03  0.00
  YS02006556YS02006558    1.00   0.00  0.00  0.00  1.00  0.00  0.00  0.00  0.00  0.00
  YS02006558YS02006561    1.00   0.18  0.00  0.00  0.07  0.75  0.00  0.00  0.18  0.00
  YS02006561YS02001783    1.00   0.18  0.00  0.00  0.11  0.72  0.00  0.00  0.67  0.00
  YS02163301YS02001633    1.00   0.00  0.15  0.00  0.85  0.00  0.00  0.00  0.00  0.00
  YS02163601YS02164001    1.00   0.00  0.08  0.00  0.92  0.00  0.00  0.00  0.00  0.00
  YS02164001YS02001641    1.00   0.01  0.08  0.00  0.92  0.00  0.00  0.00  0.05  0.00
  
  
  *************************
  Conduit Surcharge Summary
  *************************
  
  ----------------------------------------------------------------------------
                                                           Hours        Hours 
                         --------- Hours Full --------   Above Full   Capacity
  Conduit                Both Ends  Upstream  Dnstream   Normal Flow   Limited
  ----------------------------------------------------------------------------
  WS02003072WS02003073        0.01      0.01      0.01      1.87         0.01
  WS02004403WS02004404        0.01      0.01      0.01      0.01         0.01
  WS02004404WS02004405        0.01      0.01      0.01      3.41         0.01
  WS02004405WS02004406        0.01      0.01      0.01      1.15         0.01
  WS02006109WS02006110        0.52      0.52      2.25      0.78         0.01
  WS02006110WS02006113        0.01      0.01      2.22      0.01         0.01
  WS02006111WS02006112        0.01      0.01      2.31      0.01         0.01
  WS02006112WS02006115        0.01      0.01      1.53      0.01         0.01
  WS02006228WS02006109        2.17      2.25      2.17      2.65         2.17
  WS02006229WS02006228        2.15      2.18      2.15      2.45         2.12
  WS02006230WS02006229        2.31      2.36      2.31      3.85         2.31
  WS02006231WS02006230        0.57      0.57      1.45      3.42         0.01
  WS02006232WS02006231        1.19      1.19      2.27      1.26         0.01
  WS02006234WS02006232        1.91      1.91      2.27      1.21         1.07
  WS02006235WS02006234        1.58      1.64      1.89      3.18         0.13
  WS02006238WS02006235        1.98      1.98      2.27      0.01         0.07
  WS02006239WS02006238        2.09      2.25      2.11      2.41         1.69
  WS02006240WS02006239        2.07      2.17      2.08      2.43         1.60
  WS02006242WS02006240        2.16      2.16      2.32      2.61         0.02
  WS02006243WS02006242        2.19      2.19      2.28      0.01         0.31
  WS02006245WS02006243        2.16      2.18      2.17      2.08         1.31
  WS02006247WS02006245        2.16      2.20      2.16      2.78         2.00
  WS02006248WS02006247        2.15      2.15      2.19      0.01         0.36
  WS02006249WS02006248        2.14      2.14      2.16      2.75         0.01
  WS02006251WS02006249        2.16      2.17      2.16      2.68         1.90
  WS02006252WS02006251        2.77      2.77      2.77      2.77         0.01
  WS02006256WS02006235        3.03      3.28      5.78      1.69         0.01
  YS02001580YS02001583        0.73      0.73      0.77      0.01         0.01
  YS02001583YS02001586        0.74      0.74      0.84      0.01         0.01
  YS02001586YS02001590        0.85      0.85      0.93      0.01         0.01
  YS02001590YS02001593        0.93      0.93      0.95      0.96         0.01
  YS02001593YS02001596        0.94      0.94      1.05      0.01         0.01
  YS02001596YS02001600        1.11      1.11      1.20      0.01         0.01
  YS02001600YS02001601        1.27      1.27      1.57      0.01         0.01
  YS02001601YS02001602        1.45      1.45      1.61      1.23         0.01
  YS02001602YS02001605        1.39      1.39      1.45      2.48         0.01
  YS02001605YS02001607        1.33      1.39      1.33      1.53         1.33
  YS02001607YS02001610        0.85      0.85      0.89      0.01         0.01
  YS02001610YS02001613        0.85      0.85      0.89      0.01         0.01
  YS02001613YS02001616        0.80      0.80      0.85      0.01         0.01
  YS02001616YS02001619        0.78      0.78      0.80      0.09         0.07
  YS02001619YS02001622        0.78      0.78      0.78      0.97         0.76
  YS02001622YS02001625        0.77      0.77      0.99      0.01         0.01
  YS02001625YS02001629        0.67      0.67      0.99      0.01         0.01
  YS02001629YS02163301        0.96      0.96      0.97      0.43         0.41
  YS02001633YS02163601        0.99      0.99      1.03      0.55         0.54
  YS02001641YS02001644        0.79      0.86      0.79      1.65         0.78
  YS02001644YS02001647        0.52      0.52      0.79      0.04         0.01
  YS02001647YS02001649        0.52      0.52      0.57      0.01         0.01
  YS02001649YS02001757        0.55      0.57      0.55      0.48         0.36
  YS02001652YS02001649        0.43      0.43      0.57      0.01         0.01
  YS02001655YS02001652        0.34      0.34      0.42      0.01         0.01
  YS02001658YS02001655        0.26      0.26      0.34      0.01         0.01
  YS02001661YS02001658        0.10      0.10      0.26      0.01         0.01
  YS02001664YS02001661        0.01      0.01      0.14      0.01         0.01
  YS02001745YS02001748        0.01      0.01      0.17      0.01         0.01
  YS02001748YS02001751        0.22      0.22      0.28      0.01         0.01
  YS02001751YS02001754        0.28      0.28      0.34      0.01         0.01
  YS02001754YS02001757        0.36      0.36      0.55      0.01         0.01
  YS02001757CaochengTiaoxuchi        0.09      0.55      0.45      0.60         0.06
  YS02001759YS02001757        0.48      0.48      0.55      0.11         0.13
  YS02001762YS02001759        0.46      0.46      0.48      0.01         0.03
  YS02001765YS02001762        0.43      0.43      0.46      0.01         0.01
  YS02001767YS02001765        0.41      0.41      0.43      0.01         0.06
  YS02001770YS02001767        0.41      0.42      0.41      0.70         0.41
  YS02001774YS02001770        0.41      0.41      0.45      0.01         0.01
  YS02001779YS02001774        0.35      0.35      0.45      0.01         0.01
  YS02001783YS02001784        0.62      0.64      0.62      0.83         0.62
  YS02001784YS02001785        0.50      0.62      0.50      1.10         0.50
  YS02001786YS02001788        0.01      0.50      0.01      0.96         0.01
  YS02001790YS02001791        0.01      0.01      0.01      0.60         0.01
  YS02001882YS02001884        0.58      0.58      0.59      0.01         0.01
  YS02001884YS02001887        0.62      0.62      0.63      0.01         0.01
  YS02001887YS02001890        0.65      0.65      0.66      0.18         0.01
  YS02001890YS02001895        0.57      0.57      0.68      0.01         0.01
  YS02001895YS02001898        0.56      0.56      0.57      0.01         0.01
  YS02001898YS02001901        0.57      0.57      0.62      0.01         0.01
  YS02001901YS02001904        0.61      0.61      0.62      0.01         0.01
  YS02001904YS02001907        0.61      0.61      0.95      0.01         0.01
  YS02001907YS02006553        1.12      1.12      1.19      0.01         0.01
  YS02001910YS02001907        0.68      0.68      0.92      0.07         0.07
  YS02001915YS02001910        0.58      0.58      0.68      0.01         0.01
  YS02001918YS02001915        0.49      0.49      0.58      0.01         0.01
  YS02001920YS02001918        0.49      0.49      0.50      0.01         0.01
  YS02001923YS02001920        0.44      0.44      0.50      0.01         0.01
  YS02001926YS02001923        0.19      0.19      0.21      0.01         0.01
  YS02001929YS02001926        0.09      0.09      0.21      0.01         0.01
  YS02006553YS02006556        0.79      0.79      0.94      0.01         0.01
  YS02006556YS02006558        0.87      0.87      0.96      0.01         0.01
  YS02006558YS02006561        0.52      0.77      0.52      1.05         0.52
  YS02006561YS02001783        0.45      0.45      0.64      0.01         0.01
  YS02163301YS02001633        0.97      0.97      1.02      0.01         0.02
  YS02163601YS02164001        0.88      0.88      1.03      0.35         0.01
  YS02164001YS02001641        0.86      0.88      0.86      0.81         0.63
  
  
  ***************
  Pumping Summary
  ***************
  
  ---------------------------------------------------------------------------------------------------------
                                                  Min       Avg       Max     Total     Power    % Time Off
                        Percent   Number of      Flow      Flow      Flow    Volume     Usage    Pump Curve
  Pump                 Utilized   Start-Ups       LPS       LPS       LPS  10^6 ltr     Kw-hr    Low   High
  ---------------------------------------------------------------------------------------------------------
  CC-R1                   27.69           3      0.00    683.00    683.00     5.390     89.00    0.0   79.6
  CC-R2                   27.69           3      0.00    683.00    683.00     5.390     89.00    0.0   79.6
  CC-S1                   34.99           6      0.00    200.00    200.00     1.994     15.82    0.0   47.0
  CC-S2                   34.99           6      0.00    200.00    200.00     1.994     15.82    0.0   47.0
  JK-R1                    5.34          74      0.00    999.66   1000.00     1.522      4.43    0.0    0.0
  JK-R2                    5.34          74      0.00    999.66   1000.00     1.522      4.43    0.0    0.0
  JK-S                    20.97         104      0.00    299.95    300.00     1.792     40.30    0.0    0.0
  

  Analysis begun on:  Thu Jan 16 14:27:08 2025
  Analysis ended on:  Thu Jan 16 14:27:10 2025
  Total elapsed time: 00:00:02