
  EPA STORM WATER MANAGEMENT MODEL - VERSION 5.2 (Build 5.2.4)
  PYSWMM TOOLKIT API - VERSION v1.0 (2023-11-27)
  ------------------------------------------------------------

  WARNING 04: minimum elevation drop used for Conduit WS02004404WS02004405
  WARNING 03: negative offset ignored for Link YS02001904YS02001907
  
  ****************
  Analysis Options
  ****************
  Flow Units ............... LPS
  Process Models:
    Rainfall/Runoff ........ YES
    RDII ................... NO
    Snowmelt ............... NO
    Groundwater ............ NO
    Flow Routing ........... YES
    Ponding Allowed ........ NO
    Water Quality .......... NO
  Infiltration Method ...... HORTON
  Flow Routing Method ...... DYNWAVE
  Surcharge Method ......... EXTRAN
  Starting Date ............ 08/28/2015 08:00:00
  Ending Date .............. 08/28/2015 16:00:00
  Antecedent Dry Days ...... 8.0
  Report Time Step ......... 00:01:00
  Wet Time Step ............ 00:01:00
  Dry Time Step ............ 00:01:00
  Routing Time Step ........ 30.00 sec
  Variable Time Step ....... YES
  Maximum Trials ........... 8
  Number of Threads ........ 4
  Head Tolerance ........... 0.001500 m
  
  
  **************************        Volume         Depth
  Runoff Quantity Continuity     hectare-m            mm
  **************************     ---------       -------
  Total Precipitation ......         2.381        71.775
  Evaporation Loss .........         0.000         0.000
  Infiltration Loss ........         0.104         3.136
  Surface Runoff ...........         2.244        67.656
  Final Storage ............         0.033         0.997
  Continuity Error (%) .....        -0.019
  
  
  **************************        Volume        Volume
  Flow Routing Continuity        hectare-m      10^6 ltr
  **************************     ---------     ---------
  Dry Weather Inflow .......         0.025         0.251
  Wet Weather Inflow .......         2.244        22.441
  Groundwater Inflow .......         0.000         0.000
  RDII Inflow ..............         0.000         0.000
  External Inflow ..........         0.083         0.834
  External Outflow .........         1.662        16.617
  Flooding Loss ............         0.758         7.582
  Evaporation Loss .........         0.000         0.000
  Exfiltration Loss ........         0.000         0.000
  Initial Stored Volume ....         0.243         2.431
  Final Stored Volume ......         0.182         1.820
  Continuity Error (%) .....        -0.244
  
  
  *************************
  Highest Continuity Errors
  *************************
  Node YS02001884 (4.89%)
  Node YS02001583 (-2.78%)
  Node WS02006256 (-1.31%)
  
  
  ***************************
  Time-Step Critical Elements
  ***************************
  Link WS02006252WS02006251 (46.37%)
  Link WS02006238WS02006235 (14.48%)
  Link WS02004404WS02004405 (10.74%)
  Link YS02001791YS02001793 (7.47%)
  Link WS02006235WS02006234 (6.38%)
  
  
  ********************************
  Highest Flow Instability Indexes
  ********************************
  Link WS02006113WS02006111 (46)
  Link WS02006111WS02006112 (24)
  Link WS02004404WS02004405 (20)
  Link WS02004403WS02004404 (18)
  Link WS02006252WS02006251 (16)
  
  
  *********************************
  Most Frequent Nonconverging Nodes
  *********************************
  Node CC-1 (10.52%)
  Node CC-2 (10.52%)
  Node JK-1 (10.52%)
  Node JK-2 (10.52%)
  Node WSC (10.52%)
  
  
  *************************
  Routing Time Step Summary
  *************************
  Minimum Time Step           :     0.00 sec
  Average Time Step           :     1.94 sec
  Maximum Time Step           :     7.04 sec
  % of Time in Steady State   :     0.00
  Average Iterations per Step :     3.02
  % of Steps Not Converging   :    10.52
  Time Step Frequencies       :
     30.000 - 13.228 sec      :     0.00 %
     13.228 -  5.833 sec      :     6.20 %
      5.833 -  2.572 sec      :    20.90 %
      2.572 -  1.134 sec      :    21.37 %
      1.134 -  0.500 sec      :    51.53 %
  
  
  ***************************
  Subcatchment Runoff Summary
  ***************************
  
  ------------------------------------------------------------------------------------------------------------------------------
                            Total      Total      Total      Total     Imperv       Perv      Total       Total     Peak  Runoff
                           Precip      Runon       Evap      Infil     Runoff     Runoff     Runoff      Runoff   Runoff   Coeff
  Subcatchment                 mm         mm         mm         mm         mm         mm         mm    10^6 ltr      LPS
  ------------------------------------------------------------------------------------------------------------------------------
  sub60                     71.78       0.00       0.00       1.86      61.96       6.76      68.72        0.90   596.95   0.957
  sub61                     71.78       0.00       0.00       2.70      58.44       9.50      67.95        1.25   830.71   0.947
  sub62                     71.78       0.00       0.00       1.24      64.75       4.51      69.25        1.90  1175.61   0.965
  sub63                     71.78       0.00       0.00       5.03      49.99      15.79      65.78        1.49   956.01   0.917
  sub64                     71.78       0.00       0.00       2.54      59.80       8.23      68.03        1.63   970.85   0.948
  sub65                     71.78       0.00       0.00       2.19      61.19       7.14      68.33        1.88  1086.26   0.952
  sub66                     71.78       0.00       0.00       6.27      49.88      14.55      64.43        3.00  1490.28   0.898
  sub67                     71.78       0.00       0.00       1.19      64.79       4.56      69.35        1.29   884.99   0.966
  sub68                     71.78       0.00       0.00       2.24      60.54       7.81      68.35        1.88  1205.07   0.952
  sub69                     71.78       0.00       0.00       2.03      60.90       8.74      69.63        2.58  1443.05   0.970
  sub70                     71.78       0.00       0.00       6.81      47.20      17.59      64.79        1.87   839.30   0.903
  sub71                     71.78       0.00       0.00       1.27      64.70       4.47      69.17        1.81  1046.31   0.964
  sub72                     71.78       0.00       0.00       1.14      65.34       3.89      69.23        0.95   513.23   0.965
  
  
  ******************
  Node Depth Summary
  ******************
  
  ---------------------------------------------------------------------------------
                                 Average  Maximum  Maximum  Time of Max    Reported
                                   Depth    Depth      HGL   Occurrence   Max Depth
  Node                 Type       Meters   Meters   Meters  days hr:min      Meters
  ---------------------------------------------------------------------------------
  WS02003060           JUNCTION     0.24     0.38     5.32     0  02:48        0.38
  WS02003066           JUNCTION     0.20     0.30     5.85     0  02:47        0.30
  WS02003067           JUNCTION     0.50     0.70     6.02     0  02:47        0.70
  WS02003069           JUNCTION     0.26     0.43     5.01     0  02:48        0.43
  WS02003072           JUNCTION     0.33     0.50     4.87     0  02:49        0.50
  WS02003073           JUNCTION     0.19     0.30     4.36     0  02:50        0.30
  WS02004401           JUNCTION     0.60     0.88     6.88     0  02:45        0.88
  WS02004402           JUNCTION     0.63     0.90     6.86     0  02:45        0.90
  WS02004403           JUNCTION     0.66     0.92     6.85     0  02:46        0.92
  WS02004404           JUNCTION     0.73     1.04     6.89     0  02:46        1.00
  WS02004405           JUNCTION     0.72     0.97     6.82     0  02:45        0.96
  WS02004406           JUNCTION     0.73     0.96     6.79     0  02:45        0.96
  WS02004407           JUNCTION     0.18     0.30     6.61     0  02:45        0.30
  WS02004409           JUNCTION     0.39     0.67     6.44     0  02:46        0.67
  WS02004410           JUNCTION     0.42     0.68     6.40     0  02:46        0.68
  WS02004411           JUNCTION     0.44     0.69     6.37     0  02:46        0.69
  WS02004412           JUNCTION     0.46     0.70     6.34     0  02:47        0.70
  WS02004413           JUNCTION     0.62     0.86     6.33     0  02:47        0.86
  WS02006109           JUNCTION     0.65     1.47     8.09     0  02:52        1.05
  WS02006110           JUNCTION     0.65     1.65     8.23     0  02:52        0.94
  WS02006111           JUNCTION     0.18     0.29     6.99     0  03:05        0.29
  WS02006112           JUNCTION     0.75     1.10     6.98     0  02:17        1.07
  WS02006113           JUNCTION     0.27     0.46     7.35     0  03:28        0.46
  WS02006115           JUNCTION     0.48     0.78     6.91     0  02:45        0.77
  WS02006116           JUNCTION     0.57     0.86     6.90     0  02:45        0.85
  WS02006228           JUNCTION     0.64     1.71     8.36     0  02:52        1.18
  WS02006229           JUNCTION     0.61     1.77     8.47     0  02:52        1.22
  WS02006230           JUNCTION     0.61     2.16     8.90     0  02:52        1.34
  WS02006231           JUNCTION     0.42     1.71     8.84     0  02:52        1.12
  WS02006232           JUNCTION     0.56     1.68     8.72     0  02:52        1.32
  WS02006234           JUNCTION     0.48     1.60     8.75     0  03:49        1.34
  WS02006235           JUNCTION     0.51     2.00     9.16     0  03:49        2.00
  WS02006238           JUNCTION     0.54     2.15     9.29     0  03:49        2.15
  WS02006239           JUNCTION     0.51     2.03     9.24     0  03:49        2.03
  WS02006240           JUNCTION     0.47     2.10     9.39     0  03:49        2.10
  WS02006242           JUNCTION     0.54     1.55     8.82     0  03:49        1.55
  WS02006243           JUNCTION     0.45     1.38     8.80     0  02:10        1.27
  WS02006245           JUNCTION     0.45     1.31     8.79     0  02:10        1.18
  WS02006247           JUNCTION     0.47     1.26     8.76     0  02:10        1.18
  WS02006248           JUNCTION     0.43     1.10     8.69     0  02:10        1.10
  WS02006249           JUNCTION     0.46     1.09     8.69     0  02:10        1.09
  WS02006251           JUNCTION     0.46     1.42     9.09     0  03:49        1.17
  WS02006252           JUNCTION     0.34     1.50     9.74     0  00:00        0.72
  WS02006256           JUNCTION     1.02     2.35     9.28     0  00:00        2.35
  WSF200               JUNCTION     0.17     0.29     5.52     0  02:47        0.29
  YS02001580           JUNCTION     0.09     1.03     9.57     0  02:08        0.78
  YS02001583           JUNCTION     0.12     1.05     9.55     0  02:08        0.82
  YS02001586           JUNCTION     0.20     1.13     9.30     0  02:08        1.13
  YS02001590           JUNCTION     0.30     1.38     9.24     0  02:08        1.37
  YS02001593           JUNCTION     0.23     1.32     9.18     0  02:08        1.28
  YS02001596           JUNCTION     0.32     1.68     9.10     0  02:08        1.65
  YS02001600           JUNCTION     0.38     1.87     9.00     0  02:08        1.86
  YS02001601           JUNCTION     0.58     2.06     8.90     0  02:08        2.06
  YS02001602           JUNCTION     0.49     1.87     8.77     0  02:12        1.87
  YS02001605           JUNCTION     0.45     1.78     8.68     0  02:12        1.77
  YS02001607           JUNCTION     0.45     1.65     8.49     0  02:25        1.65
  YS02001610           JUNCTION     0.49     1.68     8.48     0  02:12        1.68
  YS02001613           JUNCTION     0.45     1.66     8.50     0  02:25        1.66
  YS02001616           JUNCTION     0.38     1.61     8.52     0  02:24        1.61
  YS02001619           JUNCTION     0.35     1.61     8.54     0  02:23        1.61
  YS02001622           JUNCTION     0.34     1.58     8.48     0  02:23        1.58
  YS02001625           JUNCTION     0.61     1.78     8.38     0  02:12        1.78
  YS02001629           JUNCTION     0.47     1.85     8.40     0  02:15        1.85
  YS02001633           JUNCTION     0.55     2.00     8.45     0  02:22        2.00
  YS02001641           JUNCTION     0.53     1.94     8.38     0  02:23        1.94
  YS02001644           JUNCTION     0.53     1.92     8.35     0  02:16        1.92
  YS02001647           JUNCTION     0.31     1.82     8.43     0  02:22        1.82
  YS02001649           JUNCTION     0.36     2.04     8.43     0  02:22        2.04
  YS02001652           JUNCTION     0.25     1.87     8.47     0  02:22        1.82
  YS02001655           JUNCTION     0.19     1.68     8.53     0  02:22        1.63
  YS02001658           JUNCTION     0.14     1.42     8.57     0  02:22        1.38
  YS02001661           JUNCTION     0.16     1.30     8.70     0  02:21        1.17
  YS02001664           JUNCTION     0.06     0.64     8.56     0  02:24        0.63
  YS02001745           JUNCTION     0.08     0.89     8.40     0  02:24        0.88
  YS02001748           JUNCTION     0.13     1.31     8.39     0  02:24        1.31
  YS02001751           JUNCTION     0.16     1.49     8.37     0  02:15        1.49
  YS02001754           JUNCTION     0.22     1.75     8.36     0  02:22        1.75
  YS02001757           JUNCTION     0.39     2.11     8.37     0  02:22        2.11
  YS02001759           JUNCTION     0.32     2.10     8.47     0  02:22        2.10
  YS02001762           JUNCTION     0.31     2.05     8.45     0  02:22        2.05
  YS02001765           JUNCTION     0.29     2.00     8.45     0  02:22        2.00
  YS02001767           JUNCTION     0.29     1.96     8.45     0  02:22        1.96
  YS02001770           JUNCTION     0.30     1.95     8.44     0  02:22        1.95
  YS02001774           JUNCTION     0.37     2.00     8.42     0  02:24        1.99
  YS02001779           JUNCTION     0.20     1.68     8.37     0  02:18        1.68
  YS02001783           JUNCTION     0.24     1.40     7.54     0  02:15        1.24
  YS02001784           JUNCTION     0.25     1.20     7.27     0  02:15        1.13
  YS02001786           JUNCTION     0.22     0.91     6.94     0  02:15        0.88
  YS02001788           JUNCTION     0.15     0.62     6.60     0  02:23        0.62
  YS02001790           JUNCTION     0.18     0.73     6.37     0  02:22        0.72
  YS02001791           JUNCTION     0.12     0.44     5.91     0  02:25        0.43
  YS02001793           JUNCTION     0.06     0.29     5.13     0  02:16        0.29
  YS02001882           JUNCTION     0.31     1.65     8.37     0  02:24        1.65
  YS02001884           JUNCTION     0.40     1.75     8.37     0  02:24        1.75
  YS02001887           JUNCTION     0.48     1.83     8.37     0  02:23        1.83
  YS02001890           JUNCTION     0.51     1.81     8.32     0  02:15        1.81
  YS02001895           JUNCTION     0.28     1.57     8.32     0  02:20        1.57
  YS02001898           JUNCTION     0.28     1.57     8.30     0  02:15        1.57
  YS02001901           JUNCTION     0.40     1.68     8.29     0  02:20        1.68
  YS02001904           JUNCTION     0.38     1.64     8.27     0  02:22        1.64
  YS02001907           JUNCTION     0.70     1.96     8.25     0  02:15        1.96
  YS02001910           JUNCTION     0.50     1.94     8.45     0  02:16        1.91
  YS02001915           JUNCTION     0.31     1.88     8.60     0  02:16        1.84
  YS02001918           JUNCTION     0.16     1.75     8.82     0  02:16        1.51
  YS02001920           JUNCTION     0.24     1.89     8.90     0  02:16        1.60
  YS02001923           JUNCTION     0.12     1.69     8.95     0  02:16        1.35
  YS02001926           JUNCTION     0.16     1.53     8.97     0  02:16        1.19
  YS02001929           JUNCTION     0.09     1.56     9.26     0  02:16        0.95
  YS02006553           JUNCTION     0.71     1.98     8.27     0  02:22        1.98
  YS02006556           JUNCTION     0.68     1.98     8.29     0  02:23        1.98
  YS02006558           JUNCTION     0.72     2.03     8.29     0  02:23        2.03
  YS02006561           JUNCTION     0.15     1.12     7.78     0  02:15        0.91
  YS02163301           JUNCTION     0.49     1.91     8.42     0  02:16        1.91
  YS02163601           JUNCTION     0.59     2.03     8.42     0  02:16        2.02
  YS02164001           JUNCTION     0.52     1.94     8.40     0  02:16        1.94
  CC-1                 OUTFALL      0.00     0.00     0.00     0  00:00        0.00
  CC-2                 OUTFALL      0.00     0.00     0.00     0  00:00        0.00
  JK-1                 OUTFALL      0.00     0.00     0.00     0  00:00        0.00
  JK-2                 OUTFALL      0.00     0.00     0.00     0  00:00        0.00
  WSC                  OUTFALL      0.19     0.30     0.97     0  02:50        0.30
  CC-storage           STORAGE      0.94     1.84     7.34     0  02:47        1.84
  JK-storage           STORAGE      2.83     4.23     5.03     0  02:35        4.19
  
  
  *******************
  Node Inflow Summary
  *******************
  
  -------------------------------------------------------------------------------------------------
                                  Maximum  Maximum                  Lateral       Total        Flow
                                  Lateral    Total  Time of Max      Inflow      Inflow     Balance
                                   Inflow   Inflow   Occurrence      Volume      Volume       Error
  Node                 Type           LPS      LPS  days hr:min    10^6 ltr    10^6 ltr     Percent
  -------------------------------------------------------------------------------------------------
  WS02003060           JUNCTION     16.53   554.84     0  02:48       0.476        5.61       0.045
  WS02003066           JUNCTION      0.00   537.98     0  02:47           0        5.14       0.028
  WS02003067           JUNCTION      0.00   537.88     0  02:47           0        5.14       0.084
  WS02003069           JUNCTION      0.32   554.90     0  02:48     0.00922        5.62       0.077
  WS02003072           JUNCTION      0.00   554.37     0  02:49           0        5.61       0.133
  WS02003073           JUNCTION      1.82   555.84     0  02:49      0.0524        5.66       0.111
  WS02004401           JUNCTION      0.00   539.61     0  02:27           0        5.24       0.199
  WS02004402           JUNCTION      0.00   540.07     0  02:27           0        5.23       0.202
  WS02004403           JUNCTION      0.00   539.27     0  02:27           0        5.22       0.195
  WS02004404           JUNCTION      0.16   558.02     0  02:25     0.00467        5.22       0.182
  WS02004405           JUNCTION      0.04   606.40     0  02:35      0.0011        5.21       0.159
  WS02004406           JUNCTION      0.00   543.10     0  02:45           0         5.2       0.404
  WS02004407           JUNCTION      0.00   539.22     0  02:45           0        5.18       0.025
  WS02004409           JUNCTION      0.00   538.78     0  02:45           0        5.18       0.058
  WS02004410           JUNCTION      0.00   538.73     0  02:46           0        5.17       0.091
  WS02004411           JUNCTION      0.00   538.45     0  02:46           0        5.17       0.114
  WS02004412           JUNCTION      0.00   538.35     0  02:46           0        5.16       0.152
  WS02004413           JUNCTION      0.00   538.28     0  02:47           0        5.16       0.266
  WS02006109           JUNCTION      1.23   563.76     0  02:52      0.0354        5.29       0.104
  WS02006110           JUNCTION      0.00   564.17     0  02:52           0        5.28       0.129
  WS02006111           JUNCTION      0.00   562.69     0  03:01           0        5.27       0.016
  WS02006112           JUNCTION      0.00   543.71     0  03:05           0        5.27       0.329
  WS02006113           JUNCTION      0.00   574.29     0  02:17           0        5.28       0.036
  WS02006115           JUNCTION      0.00   550.40     0  03:00           0        5.26       0.130
  WS02006116           JUNCTION      0.00   541.32     0  02:45           0        5.25       0.115
  WS02006228           JUNCTION      0.00   562.77     0  02:52           0        5.25       0.036
  WS02006229           JUNCTION      0.00   562.60     0  02:52           0        5.26       0.121
  WS02006230           JUNCTION     10.28   608.94     0  03:49       0.296        5.26       0.064
  WS02006231           JUNCTION      0.00   623.75     0  03:49           0        4.96      -0.089
  WS02006232           JUNCTION      0.00   618.47     0  03:49           0        4.98       0.256
  WS02006234           JUNCTION      0.00   592.80     0  03:49           0        4.96      -0.298
  WS02006235           JUNCTION      0.00   566.42     0  02:16           0        5.06       0.283
  WS02006238           JUNCTION      0.00   425.58     0  02:15           0        4.08      -0.242
  WS02006239           JUNCTION      0.00   424.10     0  02:15           0        4.03      -0.175
  WS02006240           JUNCTION      0.00   421.12     0  03:05           0        3.98      -0.092
  WS02006242           JUNCTION      0.00   420.58     0  03:05           0        3.96      -0.027
  WS02006243           JUNCTION      0.00   420.06     0  03:50           0        3.95       0.038
  WS02006245           JUNCTION      0.00   419.40     0  03:05           0        3.96       0.440
  WS02006247           JUNCTION      0.00   419.36     0  02:15           0        3.96      -0.005
  WS02006248           JUNCTION      0.00   420.82     0  02:15           0        3.97       0.115
  WS02006249           JUNCTION      0.00   465.33     0  06:05           0         4.2       0.420
  WS02006251           JUNCTION      0.08   410.32     0  03:49     0.00222         4.2      -0.024
  WS02006252           JUNCTION      0.00   400.00     0  00:00           0        4.19      -0.108
  WS02006256           JUNCTION      0.00   300.00     0  00:00           0        1.45      -1.296
  WSF200               JUNCTION      0.00   538.06     0  02:47           0        5.14       0.011
  YS02001580           JUNCTION      0.00    65.32     0  02:08           0     0.00399      -1.308
  YS02001583           JUNCTION      0.00   105.04     0  02:08           0      0.0157      -2.701
  YS02001586           JUNCTION    839.30   839.30     0  02:26        1.87        1.88       0.049
  YS02001590           JUNCTION      0.00   318.13     0  02:38           0        1.44      -0.022
  YS02001593           JUNCTION      0.00   318.03     0  02:24           0        1.44       0.009
  YS02001596           JUNCTION      0.00   318.05     0  02:31           0        1.44      -0.013
  YS02001600           JUNCTION      0.00   318.00     0  02:45           0        1.44       0.025
  YS02001601           JUNCTION   1443.05  1760.67     0  02:25        2.58        4.01       0.024
  YS02001602           JUNCTION      0.00   493.58     0  02:08           0        2.45       0.017
  YS02001605           JUNCTION      0.00   493.13     0  02:08           0        2.32       0.025
  YS02001607           JUNCTION      0.00   492.58     0  02:08           0        2.32       0.082
  YS02001610           JUNCTION      0.00   833.37     0  02:26           0        2.61       0.092
  YS02001613           JUNCTION      0.00   496.59     0  02:26           0        2.09       0.077
  YS02001616           JUNCTION      0.00   496.61     0  02:26           0        2.09       0.019
  YS02001619           JUNCTION   1490.28  1490.28     0  02:26           3         4.8      -0.002
  YS02001622           JUNCTION      0.00   998.52     0  02:25           0        4.51       0.002
  YS02001625           JUNCTION      0.00  1433.63     0  02:26           0         4.8       0.218
  YS02001629           JUNCTION      0.00   902.30     0  02:11           0         3.6       0.004
  YS02001633           JUNCTION   1086.46  1257.31     0  02:12        1.89        5.18       0.070
  YS02001641           JUNCTION      0.00  1255.82     0  02:12           0        4.89       0.060
  YS02001644           JUNCTION    970.88  1589.29     0  02:13        1.64        6.52       0.052
  YS02001647           JUNCTION      0.00  1588.05     0  02:13           0        5.88       0.005
  YS02001649           JUNCTION      0.00  1774.06     0  02:14           0        7.37       0.005
  YS02001652           JUNCTION      0.00   972.17     0  02:25           0         1.5      -0.056
  YS02001655           JUNCTION      0.15   972.34     0  02:25     0.00443         1.5       0.010
  YS02001658           JUNCTION      0.00   972.11     0  02:25           0        1.49      -0.025
  YS02001661           JUNCTION      0.00   973.40     0  02:25           0        1.49      -0.031
  YS02001664           JUNCTION    956.01   956.01     0  02:25        1.49        1.49      -0.006
  YS02001745           JUNCTION    596.95   596.95     0  02:25       0.903       0.903       0.128
  YS02001748           JUNCTION      0.04   601.33     0  02:25      0.0013       0.905      -0.183
  YS02001751           JUNCTION      0.01   601.89     0  02:25    0.000317        0.91       0.044
  YS02001754           JUNCTION      0.26   601.55     0  02:25     0.00749       0.921      -0.144
  YS02001757           JUNCTION      0.00  2980.79     0  02:24           0        11.2       0.011
  YS02001759           JUNCTION    830.75  1263.79     0  02:25        1.25        2.88      -0.004
  YS02001762           JUNCTION      0.00   675.53     0  02:19           0        1.63       0.006
  YS02001765           JUNCTION      0.00   676.19     0  02:19           0        1.63       0.008
  YS02001767           JUNCTION      0.54   675.78     0  02:19      0.0154        1.63       0.012
  YS02001770           JUNCTION   1175.77  1175.77     0  02:25         1.9        1.94      -0.018
  YS02001774           JUNCTION      0.00   744.97     0  02:25           0       0.348       0.350
  YS02001779           JUNCTION      0.01   743.97     0  02:25    0.000144       0.305      -0.015
  YS02001783           JUNCTION      0.00  1165.44     0  02:24           0        4.42       0.004
  YS02001784           JUNCTION      1.06  1166.93     0  02:24      0.0305        4.45       0.012
  YS02001786           JUNCTION      0.06  1167.24     0  02:24     0.00162        4.45       0.016
  YS02001788           JUNCTION      0.07  1167.53     0  02:24     0.00204        4.45       0.007
  YS02001790           JUNCTION      0.15  1173.61     0  02:23     0.00446        4.45       0.013
  YS02001791           JUNCTION      0.00  1298.29     0  02:22           0        4.45      -0.022
  YS02001793           JUNCTION      0.00  1250.74     0  02:20           0        4.45       0.003
  YS02001882           JUNCTION      0.00    27.94     0  02:12           0      0.0128       5.531
  YS02001884           JUNCTION      0.00    35.35     0  02:10           0      0.0485       5.141
  YS02001887           JUNCTION    885.44   886.12     0  02:25         1.3        1.34       0.332
  YS02001890           JUNCTION      0.00   885.25     0  02:25           0         1.3       0.398
  YS02001895           JUNCTION      0.00   517.64     0  02:22           0        1.18       0.139
  YS02001898           JUNCTION      0.00   517.28     0  02:29           0        1.18       0.018
  YS02001901           JUNCTION      0.00   517.27     0  02:27           0        1.18       0.281
  YS02001904           JUNCTION      0.00   517.22     0  02:27           0        1.18       0.236
  YS02001907           JUNCTION      0.00  2123.40     0  02:25           0        4.02       0.461
  YS02001910           JUNCTION      0.00  1568.81     0  02:25           0        2.84       0.254
  YS02001915           JUNCTION   1046.33  1568.51     0  02:25        1.81        2.87       0.052
  YS02001918           JUNCTION      0.00   526.15     0  02:25           0        1.07       0.007
  YS02001920           JUNCTION      2.87   525.70     0  02:25      0.0827        1.06       0.074
  YS02001923           JUNCTION      0.04   522.85     0  02:25     0.00109       0.968      -0.033
  YS02001926           JUNCTION      0.05   522.59     0  02:25      0.0015       0.957       0.021
  YS02001929           JUNCTION    513.23   513.23     0  02:26       0.952       0.952      -0.045
  YS02006553           JUNCTION      0.00   804.86     0  02:40           0        2.56       0.467
  YS02006556           JUNCTION      0.00   804.46     0  02:40           0        2.57       0.317
  YS02006558           JUNCTION   1205.95  1205.95     0  02:25        1.91        4.45       0.075
  YS02006561           JUNCTION      0.00  1165.85     0  02:24           0        4.42      -0.000
  YS02163301           JUNCTION      0.00   900.81     0  02:11           0         3.6       0.046
  YS02163601           JUNCTION      0.11  1256.60     0  02:12     0.00317        4.88       0.104
  YS02164001           JUNCTION      0.00  1255.67     0  02:12           0        4.88       0.044
  CC-1                 OUTFALL       0.00   683.00     0  00:00           0        4.25       0.000
  CC-2                 OUTFALL       0.00   683.00     0  00:00           0        3.58       0.000
  JK-1                 OUTFALL       0.00  1000.00     0  00:00           0        2.78       0.000
  JK-2                 OUTFALL       0.00  1000.00     0  00:00           0       0.348       0.000
  WSC                  OUTFALL       0.00   555.49     0  02:50           0        5.65       0.000
  CC-storage           STORAGE       0.00  2980.97     0  02:24           0        13.4      -0.201
  JK-storage           STORAGE       0.00  1240.81     0  02:24           0         4.6      -0.358
  
  
  **********************
  Node Surcharge Summary
  **********************
  
  Surcharging occurs when water rises above the top of the highest conduit.
  ---------------------------------------------------------------------
                                               Max. Height   Min. Depth
                                   Hours       Above Crown    Below Rim
  Node                 Type      Surcharged         Meters       Meters
  ---------------------------------------------------------------------
  WS02004404           JUNCTION        0.02          0.044        2.736
  WS02006109           JUNCTION        1.95          0.652        1.168
  WS02006110           JUNCTION        0.69          0.736        1.114
  WS02006112           JUNCTION        0.95          0.096        1.584
  WS02006228           JUNCTION        1.95          0.883        1.317
  WS02006229           JUNCTION        1.96          0.971        1.479
  WS02006230           JUNCTION        0.70          1.080        0.490
  WS02006231           JUNCTION        0.87          1.002        0.528
  WS02006232           JUNCTION        2.00          0.976        0.504
  WS02006234           JUNCTION        1.21          0.876        0.364
  WS02006235           JUNCTION        1.90          1.290        0.000
  WS02006238           JUNCTION        1.95          1.430        0.000
  WS02006239           JUNCTION        1.92          1.290        0.000
  WS02006240           JUNCTION        1.95          1.390        0.000
  WS02006242           JUNCTION        1.96          0.820        0.000
  WS02006243           JUNCTION        1.94          0.672        0.098
  WS02006245           JUNCTION        1.94          0.596        0.254
  WS02006247           JUNCTION        1.94          0.546        0.214
  WS02006248           JUNCTION        1.93          0.380        0.000
  WS02006249           JUNCTION        1.93          0.390        0.000
  WS02006251           JUNCTION        0.96          0.389        0.791
  WS02006252           JUNCTION        2.27          1.100        0.000
  WS02006256           JUNCTION        6.86          2.050        0.000
  YS02001580           JUNCTION        0.69          0.426        0.024
  YS02001583           JUNCTION        0.69          0.410        0.090
  YS02001586           JUNCTION        0.83          0.510        0.000
  YS02001590           JUNCTION        0.93          0.733        0.017
  YS02001593           JUNCTION        0.92          0.696        0.144
  YS02001596           JUNCTION        1.05          0.948        0.122
  YS02001600           JUNCTION        1.21          1.190        0.000
  YS02001601           JUNCTION        1.58          1.440        0.000
  YS02001602           JUNCTION        1.46          1.270        0.000
  YS02001605           JUNCTION        1.40          1.176        0.004
  YS02001607           JUNCTION        0.92          0.646        0.034
  YS02001610           JUNCTION        0.94          0.680        0.000
  YS02001613           JUNCTION        0.91          0.663        0.037
  YS02001616           JUNCTION        0.87          0.609        0.001
  YS02001619           JUNCTION        0.86          0.610        0.000
  YS02001622           JUNCTION        0.86          0.576        0.044
  YS02001625           JUNCTION        1.04          0.780        0.000
  YS02001629           JUNCTION        0.79          0.470        0.000
  YS02001633           JUNCTION        1.07          0.977        0.083
  YS02001641           JUNCTION        1.01          0.944        0.156
  YS02001644           JUNCTION        0.98          0.920        0.000
  YS02001647           JUNCTION        0.77          0.819        0.081
  YS02001649           JUNCTION        0.89          1.036        0.014
  YS02001652           JUNCTION        0.72          0.841        0.289
  YS02001655           JUNCTION        0.55          0.680        0.520
  YS02001658           JUNCTION        0.30          0.425        0.875
  YS02001661           JUNCTION        0.07          0.225        1.165
  YS02001748           JUNCTION        0.24          0.230        0.960
  YS02001751           JUNCTION        0.42          0.494        0.706
  YS02001754           JUNCTION        0.63          0.705        0.445
  YS02001757           JUNCTION        0.96          1.110        0.100
  YS02001759           JUNCTION        0.87          1.102        0.108
  YS02001762           JUNCTION        0.85          1.054        0.096
  YS02001765           JUNCTION        0.81          0.997        0.103
  YS02001767           JUNCTION        0.78          0.959        0.071
  YS02001770           JUNCTION        0.75          0.920        0.000
  YS02001774           JUNCTION        0.83          0.997        0.053
  YS02001779           JUNCTION        0.62          0.680        0.000
  YS02001783           JUNCTION        0.59          0.597        1.003
  YS02001784           JUNCTION        0.57          0.405        1.085
  YS02001786           JUNCTION        0.45          0.114        1.316
  YS02001882           JUNCTION        0.53          0.653        0.177
  YS02001884           JUNCTION        0.54          0.692        0.178
  YS02001887           JUNCTION        0.58          0.783        0.167
  YS02001890           JUNCTION        0.60          0.760        0.000
  YS02001895           JUNCTION        0.52          0.568        0.182
  YS02001898           JUNCTION        0.52          0.540        0.200
  YS02001901           JUNCTION        0.57          0.678        0.192
  YS02001904           JUNCTION        0.56          0.639        0.211
  YS02001907           JUNCTION        0.88          0.950        0.000
  YS02001910           JUNCTION        0.63          0.944        0.156
  YS02001915           JUNCTION        0.53          0.879        0.121
  YS02001918           JUNCTION        0.44          0.751        0.059
  YS02001920           JUNCTION        0.45          0.890        0.250
  YS02001923           JUNCTION        0.12          0.481        0.339
  YS02001926           JUNCTION        0.15          0.528        0.372
  YS02001929           JUNCTION        0.01          0.565        0.215
  YS02006553           JUNCTION        0.90          0.985        0.205
  YS02006556           JUNCTION        0.74          0.937        0.413
  YS02006558           JUNCTION        0.72          0.928        0.472
  YS02006561           JUNCTION        0.40          0.323        0.827
  YS02163301           JUNCTION        1.05          0.908        0.122
  YS02163601           JUNCTION        1.10          1.026        0.054
  YS02164001           JUNCTION        1.01          0.944        0.156
  
  
  *********************
  Node Flooding Summary
  *********************
  
  Flooding refers to all water that overflows a node, whether it ponds or not.
  --------------------------------------------------------------------------
                                                             Total   Maximum
                                 Maximum   Time of Max       Flood    Ponded
                        Hours       Rate    Occurrence      Volume     Depth
  Node                 Flooded       LPS   days hr:min    10^6 ltr    Meters
  --------------------------------------------------------------------------
  WS02006235              0.01     16.52      0  03:49       0.000     0.000
  WS02006238              0.01     12.74      0  03:49       0.000     0.000
  WS02006239              0.01      5.26      0  03:49       0.000     0.000
  WS02006240              0.01     13.26      0  03:49       0.000     0.000
  WS02006242              0.01      3.08      0  03:49       0.000     0.000
  WS02006248              0.02     23.55      0  03:49       0.001     0.000
  WS02006249              0.91     85.34      0  02:59       0.215     0.000
  WS02006252              0.01    245.63      0  00:00       0.000     0.000
  WS02006256              1.34    294.82      0  03:59       0.447     0.000
  YS02001586              0.53    521.81      0  02:26       0.436     0.000
  YS02001600              0.01      1.15      0  02:08       0.000     0.000
  YS02001601              0.77   1362.74      0  02:25       1.558     0.000
  YS02001602              0.64     62.00      0  02:17       0.134     0.000
  YS02001610              0.57    833.25      0  02:26       0.804     0.000
  YS02001619              0.01      1.04      0  02:23       0.000     0.000
  YS02001625              0.54   1433.52      0  02:26       1.492     0.000
  YS02001629              0.12     77.02      0  02:25       0.013     0.000
  YS02001644              0.26   1429.98      0  02:25       0.630     0.000
  YS02001770              0.01      1.97      0  02:22       0.000     0.000
  YS02001779              0.22    743.96      0  02:25       0.287     0.000
  YS02001890              0.19    368.57      0  02:25       0.113     0.000
  YS02001907              0.38   2122.27      0  02:25       1.454     0.000
  
  
  **********************
  Storage Volume Summary
  **********************
  
  ------------------------------------------------------------------------------------------------
                         Average    Avg   Evap  Exfil     Maximum    Max    Time of Max    Maximum
                          Volume   Pcnt   Pcnt   Pcnt      Volume   Pcnt     Occurrence    Outflow
  Storage Unit           1000 m³   Full   Loss   Loss     1000 m³   Full    days hr:min        LPS
  ------------------------------------------------------------------------------------------------
  CC-storage               2.629   41.0    0.0    0.0       5.122   79.9       0  02:47    1783.53
  JK-storage               0.142   48.8    0.0    0.0       0.213   73.0       0  02:35    2300.00
  
  
  ***********************
  Outfall Loading Summary
  ***********************
  
  -----------------------------------------------------------
                         Flow       Avg       Max       Total
                         Freq      Flow      Flow      Volume
  Outfall Node           Pcnt       LPS       LPS    10^6 ltr
  -----------------------------------------------------------
  CC-1                  23.41    683.00    683.00       4.253
  CC-2                  22.46    683.00    683.00       3.584
  JK-1                  13.02   1000.00   1000.00       2.778
  JK-2                   1.33   1000.00   1000.00       0.348
  WSC                   99.96    254.46    555.49       5.653
  -----------------------------------------------------------
  System                32.04   3620.46   3366.23      16.617
  
  
  ********************
  Link Flow Summary
  ********************
  
  -----------------------------------------------------------------------------
                                 Maximum  Time of Max   Maximum    Max/    Max/
                                  |Flow|   Occurrence   |Veloc|    Full    Full
  Link                 Type          LPS  days hr:min     m/sec    Flow   Depth
  -----------------------------------------------------------------------------
  1                    CONDUIT    555.49     0  02:50      2.83    0.19    0.30
  WS02003060WS02003069 CONDUIT    554.58     0  02:48      1.64    0.22    0.34
  WS02003066WSF200     CONDUIT    538.06     0  02:47      2.85    0.09    0.22
  WS02003067WS02003066 CONDUIT    537.98     0  02:47      1.21    0.17    0.42
  WS02003069WS02003072 CONDUIT    554.37     0  02:49      1.37    0.27    0.39
  WS02003072WS02003073 CONDUIT    554.02     0  02:49      1.44    1.20    0.37
  WS02004401WS02004402 CONDUIT    540.07     0  02:27      0.98    0.65    0.89
  WS02004402WS02004403 CONDUIT    539.27     0  02:27      0.97    0.77    0.91
  WS02004403WS02004404 CONDUIT    557.85     0  02:25      0.92    0.40    0.96
  WS02004404WS02004405 CONDUIT    606.36     0  02:35      1.08    5.94    0.98
  WS02004405WS02004406 CONDUIT    543.10     0  02:45      0.99    1.07    0.96
  WS02004406WS02004407 CONDUIT    539.22     0  02:45      1.04    0.24    0.63
  WS02004407WS02004409 CONDUIT    538.78     0  02:45      1.48    0.19    0.48
  WS02004409WS02004410 CONDUIT    538.73     0  02:46      0.97    0.70    0.68
  WS02004410WS02004411 CONDUIT    538.45     0  02:46      0.94    0.74    0.69
  WS02004411WS02004412 CONDUIT    538.35     0  02:46      0.92    0.76    0.69
  WS02004412WS02004413 CONDUIT    538.28     0  02:47      0.82    0.36    0.78
  WS02004413WS02003067 CONDUIT    537.88     0  02:47      1.11    0.23    0.59
  WS02006109WS02006110 CONDUIT    564.17     0  02:52      1.12    1.08    1.00
  WS02006110WS02006113 CONDUIT    574.29     0  02:17      1.39    0.52    0.79
  WS02006111WS02006112 CONDUIT    543.71     0  03:05      1.81    0.26    0.67
  WS02006112WS02006115 CONDUIT    550.40     0  03:00      0.79    0.32    0.88
  WS02006113WS02006111 CONDUIT    562.69     0  03:01      2.47    0.67    0.46
  WS02006115WS02006116 CONDUIT    541.32     0  02:45      0.97    0.69    0.79
  WS02006116WS02004401 CONDUIT    539.61     0  02:27      0.98    0.74    0.87
  WS02006228WS02006109 CONDUIT    562.53     0  02:52      1.12    2.46    1.00
  WS02006229WS02006228 CONDUIT    562.77     0  02:52      1.14    1.86    1.00
  WS02006230WS02006229 CONDUIT    562.60     0  02:52      1.46   12.52    1.00
  WS02006231WS02006230 CONDUIT    598.66     0  03:49      1.64    9.08    1.00
  WS02006232WS02006231 CONDUIT    623.75     0  03:49      1.63    1.31    1.00
  WS02006234WS02006232 CONDUIT    618.47     0  03:49      1.61    1.25    1.00
  WS02006235WS02006234 CONDUIT    592.80     0  03:49      1.54    6.25    1.00
  WS02006238WS02006235 CONDUIT    427.14     0  02:15      1.50    0.95    1.00
  WS02006239WS02006238 CONDUIT    425.58     0  02:15      1.19    1.36    1.00
  WS02006240WS02006239 CONDUIT    424.10     0  02:15      1.29    1.33    1.00
  WS02006242WS02006240 CONDUIT    421.12     0  03:05      1.17    1.67    1.00
  WS02006243WS02006242 CONDUIT    420.58     0  03:05      1.42    0.90    1.00
  WS02006245WS02006243 CONDUIT    420.06     0  03:50      1.45    1.24    1.00
  WS02006247WS02006245 CONDUIT    419.40     0  03:05      1.43    3.33    1.00
  WS02006248WS02006247 CONDUIT    419.36     0  02:15      1.44    0.91    1.00
  WS02006249WS02006248 CONDUIT    420.82     0  02:15      1.38    2.31    1.00
  WS02006251WS02006249 CONDUIT    465.33     0  06:05      2.15    1.34    1.00
  WS02006252WS02006251 CONDUIT    410.25     0  03:49     25.82    1.51    1.00
  WS02006256WS02006235 CONDUIT    288.91     0  00:00      4.23    3.06    1.00
  WSF200WS02003060     CONDUIT    538.31     0  02:48      2.06    0.12    0.28
  YS02001580YS02001583 CONDUIT     65.32     0  02:08      0.48    0.25    1.00
  YS02001583YS02001586 CONDUIT    105.04     0  02:08      0.43    0.16    1.00
  YS02001586YS02001590 CONDUIT    318.13     0  02:38      1.24    0.56    1.00
  YS02001590YS02001593 CONDUIT    318.03     0  02:24      1.12    2.00    1.00
  YS02001593YS02001596 CONDUIT    318.05     0  02:31      1.73    0.50    1.00
  YS02001596YS02001600 CONDUIT    318.00     0  02:45      1.27    0.62    1.00
  YS02001600YS02001601 CONDUIT    318.02     0  02:24      1.12    0.55    1.00
  YS02001601YS02001602 CONDUIT    493.58     0  02:08      1.75    1.78    1.00
  YS02001602YS02001605 CONDUIT    493.13     0  02:08      1.74   10.44    1.00
  YS02001605YS02001607 CONDUIT    492.58     0  02:08      1.74    2.70    1.00
  YS02001607YS02001610 CONDUIT    491.31     0  02:08      0.63    0.47    1.00
  YS02001610YS02001613 CONDUIT    497.29     0  02:26      0.63    0.57    1.00
  YS02001613YS02001616 CONDUIT    496.59     0  02:26      0.63    0.43    1.00
  YS02001616YS02001619 CONDUIT    496.61     0  02:26      0.66    0.86    1.00
  YS02001619YS02001622 CONDUIT    998.52     0  02:25      1.27    1.47    1.00
  YS02001622YS02001625 CONDUIT    999.52     0  02:25      1.27    0.53    1.00
  YS02001625YS02001629 CONDUIT    902.30     0  02:11      1.15    0.43    1.00
  YS02001629YS02163301 CONDUIT    900.81     0  02:11      1.15    1.11    1.00
  YS02001633YS02163601 CONDUIT   1256.49     0  02:12      1.60    1.32    1.00
  YS02001641YS02001644 CONDUIT   1256.71     0  02:12      1.60    4.06    1.00
  YS02001644YS02001647 CONDUIT   1588.05     0  02:13      2.07    0.93    1.00
  YS02001647YS02001649 CONDUIT   1592.12     0  02:12      2.24    0.84    1.00
  YS02001649YS02001757 CONDUIT   1774.95     0  02:14      2.30    1.08    1.00
  YS02001652YS02001649 CONDUIT    972.46     0  02:25      1.24    0.48    1.00
  YS02001655YS02001652 CONDUIT    972.17     0  02:25      1.25    0.47    1.00
  YS02001658YS02001655 CONDUIT    972.18     0  02:25      1.80    0.41    1.00
  YS02001661YS02001658 CONDUIT    972.11     0  02:25      2.13    0.38    1.00
  YS02001664YS02001661 CONDUIT    973.40     0  02:25      2.02    0.31    0.82
  YS02001745YS02001748 CONDUIT    601.29     0  02:25      1.96    0.23    0.94
  YS02001748YS02001751 CONDUIT    601.88     0  02:25      1.56    0.30    1.00
  YS02001751YS02001754 CONDUIT    601.29     0  02:25      1.36    0.29    1.00
  YS02001754YS02001757 CONDUIT    601.35     0  02:25      0.77    0.24    1.00
  YS02001757CaochengTiaoxuchi CONDUIT   2980.97     0  02:24      3.80    1.29    1.00
  YS02001759YS02001757 CONDUIT   1264.79     0  02:25      1.61    0.90    1.00
  YS02001762YS02001759 CONDUIT    676.75     0  02:20      0.86    0.78    1.00
  YS02001765YS02001762 CONDUIT    675.53     0  02:19      0.86    0.63    1.00
  YS02001767YS02001765 CONDUIT    676.19     0  02:19      0.86    0.85    1.00
  YS02001770YS02001767 CONDUIT    675.24     0  02:19      0.86    2.67    1.00
  YS02001774YS02001770 CONDUIT    744.97     0  02:25      0.95    0.48    1.00
  YS02001779YS02001774 CONDUIT    743.97     0  02:25      0.95    0.37    1.00
  YS02001783YS02001784 CONDUIT   1165.87     0  02:24      2.32    1.61    1.00
  YS02001784YS02001785 CONDUIT   1167.19     0  02:24      2.32    2.72    1.00
  YS02001786YS02001788 CONDUIT   1167.46     0  02:24      2.48    2.25    0.89
  YS02001788YS02001790 CONDUIT   1173.46     0  02:23      2.71    0.86    0.84
  YS02001790YS02001791 CONDUIT   1298.29     0  02:22      3.44    1.41    0.71
  YS02001791YS02001793 CONDUIT   1250.74     0  02:20      6.57    0.54    0.45
  YS02001793JiankangQianchi CONDUIT   1240.81     0  02:24      2.43    0.10    0.65
  YS02001882YS02001884 CONDUIT     27.94     0  02:12      0.14    0.03    1.00
  YS02001884YS02001887 CONDUIT     35.46     0  02:52      0.10    0.05    1.00
  YS02001887YS02001890 CONDUIT    885.25     0  02:25      1.13    1.52    1.00
  YS02001890YS02001895 CONDUIT    517.64     0  02:22      0.66    0.24    1.00
  YS02001895YS02001898 CONDUIT    517.28     0  02:29      0.66    0.90    1.00
  YS02001898YS02001901 CONDUIT    517.27     0  02:27      0.66    0.33    1.00
  YS02001901YS02001904 CONDUIT    517.22     0  02:27      0.66    0.80    1.00
  YS02001904YS02001907 CONDUIT    517.49     0  02:22      0.66    0.18    1.00
  YS02001907YS02006553 CONDUIT    804.86     0  02:40      0.89    0.95    1.00
  YS02001910YS02001907 CONDUIT   1569.05     0  02:25      2.00    0.88    1.00
  YS02001915YS02001910 CONDUIT   1568.81     0  02:25      2.00    0.78    1.00
  YS02001918YS02001915 CONDUIT    525.93     0  02:25      0.67    0.29    1.00
  YS02001920YS02001918 CONDUIT    526.15     0  02:25      0.67    0.51    1.00
  YS02001923YS02001920 CONDUIT    522.83     0  02:25      0.69    0.23    1.00
  YS02001926YS02001923 CONDUIT    522.81     0  02:25      0.94    0.75    1.00
  YS02001929YS02001926 CONDUIT    522.54     0  02:25      1.06    0.25    1.00
  YS02006553YS02006556 CONDUIT    804.46     0  02:40      1.02    0.69    1.00
  YS02006556YS02006558 CONDUIT    806.68     0  02:40      1.03    0.64    1.00
  YS02006558YS02006561 CONDUIT   1165.85     0  02:24      4.12    2.58    1.00
  YS02006561YS02001783 CONDUIT   1165.44     0  02:24      2.32    0.60    1.00
  YS02163301YS02001633 CONDUIT    900.72     0  02:11      1.15    0.85    1.00
  YS02163601YS02164001 CONDUIT   1255.67     0  02:12      1.60    1.11    1.00
  YS02164001YS02001641 CONDUIT   1255.82     0  02:12      1.60    1.71    1.00
  CC-R1                PUMP       683.00     0  00:00              1.00
  CC-R2                PUMP       683.00     0  00:00              1.00
  CC-S1                PUMP       200.00     0  00:00              1.00
  CC-S2                PUMP       200.00     0  00:00              1.00
  JK-R1                PUMP      1000.00     0  00:00              1.00
  JK-R2                PUMP      1000.00     0  00:00              1.00
  JK-S                 PUMP       300.00     0  00:00              1.00
  
  
  ***************************
  Flow Classification Summary
  ***************************
  
  -------------------------------------------------------------------------------------
                      Adjusted    ---------- Fraction of Time in Flow Class ---------- 
                       /Actual         Up    Down  Sub   Sup   Up    Down  Norm  Inlet 
  Conduit               Length    Dry  Dry   Dry   Crit  Crit  Crit  Crit  Ltd   Ctrl  
  -------------------------------------------------------------------------------------
  1                       1.00   0.00  0.00  0.00  0.00  1.00  0.00  0.00  0.41  0.00
  WS02003060WS02003069    1.00   0.00  0.00  0.00  0.97  0.03  0.00  0.00  0.66  0.00
  WS02003066WSF200        1.00   0.13  0.00  0.00  0.00  0.87  0.00  0.00  0.76  0.00
  WS02003067WS02003066    1.00   0.10  0.02  0.00  0.88  0.00  0.00  0.00  0.00  0.00
  WS02003069WS02003072    1.00   0.00  0.00  0.00  0.99  0.01  0.00  0.00  0.73  0.00
  WS02003072WS02003073    1.00   0.00  0.00  0.00  0.00  0.00  0.00  1.00  0.00  0.00
  WS02004401WS02004402    1.00   0.02  0.00  0.00  0.98  0.00  0.00  0.00  0.00  0.00
  WS02004402WS02004403    1.00   0.02  0.00  0.00  0.97  0.00  0.00  0.00  0.00  0.00
  WS02004403WS02004404    1.00   0.00  0.03  0.00  0.97  0.00  0.00  0.00  0.00  0.00
  WS02004404WS02004405    1.00   0.00  0.00  0.00  1.00  0.00  0.00  0.00  0.02  0.00
  WS02004405WS02004406    1.00   0.00  0.00  0.00  1.00  0.00  0.00  0.00  0.00  0.00
  WS02004406WS02004407    1.00   0.00  0.05  0.00  0.95  0.00  0.00  0.00  0.00  0.00
  WS02004407WS02004409    1.00   0.05  0.00  0.00  0.94  0.01  0.00  0.00  0.95  0.00
  WS02004409WS02004410    1.00   0.05  0.00  0.00  0.95  0.00  0.00  0.00  0.03  0.00
  WS02004410WS02004411    1.00   0.05  0.00  0.00  0.95  0.00  0.00  0.00  0.01  0.00
  WS02004411WS02004412    1.00   0.05  0.00  0.00  0.95  0.00  0.00  0.00  0.00  0.00
  WS02004412WS02004413    1.00   0.05  0.00  0.00  0.94  0.00  0.00  0.00  0.01  0.00
  WS02004413WS02003067    1.00   0.06  0.04  0.00  0.00  0.00  0.90  0.00  0.00  0.00
  WS02006109WS02006110    1.00   0.00  0.01  0.00  0.98  0.00  0.01  0.00  0.00  0.00
  WS02006110WS02006113    1.00   0.01  0.01  0.00  0.98  0.00  0.00  0.00  0.00  0.00
  WS02006111WS02006112    1.00   0.02  0.00  0.00  0.98  0.00  0.00  0.00  0.98  0.00
  WS02006112WS02006115    1.00   0.02  0.00  0.00  0.97  0.00  0.00  0.00  0.00  0.00
  WS02006113WS02006111    1.00   0.02  0.00  0.00  0.00  0.98  0.00  0.00  0.16  0.00
  WS02006115WS02006116    1.00   0.02  0.00  0.00  0.97  0.00  0.00  0.01  0.00  0.00
  WS02006116WS02004401    1.00   0.02  0.00  0.00  0.98  0.00  0.00  0.00  0.00  0.00
  WS02006228WS02006109    1.00   0.00  0.00  0.00  1.00  0.00  0.00  0.00  0.00  0.00
  WS02006229WS02006228    1.00   0.00  0.00  0.00  0.99  0.00  0.00  0.01  0.00  0.00
  WS02006230WS02006229    1.00   0.00  0.00  0.00  0.99  0.00  0.00  0.01  0.01  0.00
  WS02006231WS02006230    1.00   0.00  0.00  0.00  0.26  0.00  0.73  0.00  0.00  0.00
  WS02006232WS02006231    1.00   0.00  0.00  0.00  0.98  0.00  0.01  0.00  0.00  0.00
  WS02006234WS02006232    1.00   0.00  0.00  0.00  1.00  0.00  0.00  0.00  0.06  0.00
  WS02006235WS02006234    1.00   0.00  0.00  0.00  0.91  0.00  0.09  0.00  0.00  0.00
  WS02006238WS02006235    1.00   0.00  0.00  0.00  1.00  0.00  0.00  0.00  0.00  0.00
  WS02006239WS02006238    1.00   0.00  0.00  0.00  1.00  0.00  0.00  0.00  0.15  0.00
  WS02006240WS02006239    1.00   0.00  0.00  0.00  0.72  0.00  0.00  0.28  0.05  0.00
  WS02006242WS02006240    1.00   0.00  0.00  0.00  0.99  0.00  0.01  0.00  0.00  0.00
  WS02006243WS02006242    1.00   0.00  0.00  0.00  0.98  0.00  0.00  0.01  0.49  0.00
  WS02006245WS02006243    1.00   0.00  0.00  0.00  0.85  0.00  0.00  0.15  0.01  0.00
  WS02006247WS02006245    1.00   0.00  0.00  0.00  0.98  0.00  0.00  0.02  0.00  0.00
  WS02006248WS02006247    1.00   0.00  0.00  0.00  0.98  0.00  0.00  0.02  0.40  0.00
  WS02006249WS02006248    1.00   0.00  0.00  0.00  0.51  0.00  0.49  0.00  0.00  0.00
  WS02006251WS02006249    1.00   0.00  0.00  0.00  0.99  0.01  0.00  0.00  0.50  0.00
  WS02006252WS02006251    1.00   0.00  0.43  0.00  0.12  0.00  0.45  0.00  0.00  0.00
  WS02006256WS02006235    1.00   0.00  0.00  0.00  0.99  0.01  0.00  0.00  0.00  0.00
  WSF200WS02003060        1.00   0.00  0.13  0.00  0.21  0.66  0.00  0.00  0.49  0.00
  YS02001580YS02001583    1.00   0.26  0.53  0.00  0.21  0.00  0.00  0.00  0.62  0.00
  YS02001583YS02001586    1.00   0.40  0.34  0.00  0.26  0.00  0.00  0.00  0.62  0.00
  YS02001586YS02001590    1.00   0.13  0.00  0.00  0.46  0.04  0.00  0.38  0.38  0.00
  YS02001590YS02001593    1.00   0.13  0.01  0.00  0.13  0.00  0.74  0.00  0.00  0.00
  YS02001593YS02001596    1.00   0.13  0.00  0.00  0.15  0.01  0.00  0.71  0.02  0.00
  YS02001596YS02001600    1.00   0.13  0.00  0.00  0.22  0.01  0.00  0.63  0.05  0.00
  YS02001600YS02001601    1.00   0.13  0.01  0.00  0.86  0.00  0.00  0.00  0.58  0.00
  YS02001601YS02001602    1.00   0.13  0.01  0.00  0.87  0.00  0.00  0.00  0.00  0.00
  YS02001602YS02001605    1.00   0.13  0.00  0.00  0.87  0.00  0.00  0.00  0.00  0.00
  YS02001605YS02001607    1.00   0.14  0.00  0.00  0.86  0.00  0.00  0.00  0.00  0.00
  YS02001607YS02001610    1.00   0.13  0.01  0.00  0.86  0.00  0.00  0.00  0.01  0.00
  YS02001610YS02001613    1.00   0.13  0.00  0.00  0.87  0.00  0.00  0.00  0.00  0.00
  YS02001613YS02001616    1.00   0.13  0.00  0.00  0.87  0.00  0.00  0.00  0.00  0.00
  YS02001616YS02001619    1.00   0.13  0.00  0.00  0.87  0.00  0.00  0.00  0.00  0.00
  YS02001619YS02001622    1.00   0.13  0.00  0.00  0.87  0.00  0.00  0.00  0.27  0.00
  YS02001622YS02001625    1.00   0.13  0.00  0.00  0.87  0.00  0.00  0.00  0.04  0.00
  YS02001625YS02001629    1.00   0.13  0.04  0.00  0.18  0.00  0.64  0.00  0.00  0.00
  YS02001629YS02163301    1.00   0.15  0.01  0.00  0.84  0.00  0.00  0.00  0.00  0.00
  YS02001633YS02163601    1.00   0.00  0.01  0.00  0.99  0.00  0.00  0.00  0.14  0.00
  YS02001641YS02001644    1.00   0.00  0.01  0.00  0.99  0.00  0.00  0.00  0.00  0.00
  YS02001644YS02001647    1.00   0.00  0.17  0.00  0.83  0.00  0.00  0.00  0.00  0.00
  YS02001647YS02001649    1.00   0.00  0.17  0.00  0.55  0.29  0.00  0.00  0.54  0.00
  YS02001649YS02001757    1.00   0.00  0.00  0.00  0.83  0.17  0.00  0.00  0.40  0.00
  YS02001652YS02001649    1.00   0.00  0.00  0.00  0.97  0.03  0.00  0.00  0.72  0.00
  YS02001655YS02001652    1.00   0.00  0.00  0.00  0.21  0.01  0.00  0.77  0.06  0.00
  YS02001658YS02001655    1.00   0.00  0.14  0.00  0.67  0.19  0.00  0.00  0.67  0.00
  YS02001661YS02001658    1.00   0.14  0.00  0.00  0.51  0.35  0.00  0.00  0.68  0.00
  YS02001664YS02001661    1.00   0.13  0.00  0.00  0.78  0.10  0.00  0.00  0.85  0.00
  YS02001745YS02001748    1.00   0.00  0.00  0.00  0.12  0.00  0.00  0.88  0.04  0.00
  YS02001748YS02001751    1.00   0.00  0.00  0.00  0.83  0.17  0.00  0.00  0.72  0.00
  YS02001751YS02001754    1.00   0.00  0.00  0.00  0.19  0.01  0.00  0.81  0.04  0.00
  YS02001754YS02001757    1.00   0.00  0.00  0.00  1.00  0.00  0.00  0.00  0.79  0.00
  YS02001757CaochengTiaoxuchi    1.00   0.00  0.00  0.00  1.00  0.00  0.00  0.00  0.63  0.00
  YS02001759YS02001757    1.00   0.00  0.00  0.00  0.99  0.01  0.00  0.00  0.50  0.00
  YS02001762YS02001759    1.00   0.00  0.00  0.00  1.00  0.00  0.00  0.00  0.05  0.00
  YS02001765YS02001762    1.00   0.00  0.00  0.00  1.00  0.00  0.00  0.00  0.63  0.00
  YS02001767YS02001765    1.00   0.00  0.00  0.00  1.00  0.00  0.00  0.00  0.01  0.00
  YS02001770YS02001767    1.00   0.00  0.00  0.00  1.00  0.00  0.00  0.00  0.00  0.00
  YS02001774YS02001770    1.00   0.00  0.13  0.00  0.71  0.00  0.16  0.00  0.03  0.00
  YS02001779YS02001774    1.00   0.00  0.00  0.00  1.00  0.00  0.00  0.00  0.73  0.00
  YS02001783YS02001784    1.00   0.00  0.17  0.00  0.83  0.00  0.00  0.00  0.54  0.00
  YS02001784YS02001785    1.00   0.00  0.00  0.00  1.00  0.00  0.00  0.00  0.16  0.00
  YS02001786YS02001788    1.00   0.00  0.00  0.00  0.78  0.22  0.00  0.00  0.00  0.00
  YS02001788YS02001790    1.00   0.00  0.00  0.00  0.21  0.79  0.00  0.00  0.79  0.00
  YS02001790YS02001791    1.00   0.00  0.00  0.00  0.01  0.99  0.00  0.00  0.17  0.00
  YS02001791YS02001793    1.00   0.00  0.00  0.00  0.00  1.00  0.00  0.00  0.01  0.00
  YS02001793JiankangQianchi    1.00   0.00  0.00  0.00  0.99  0.01  0.00  0.00  0.95  0.00
  YS02001882YS02001884    1.00   0.15  0.01  0.00  0.84  0.00  0.00  0.00  0.00  0.00
  YS02001884YS02001887    1.00   0.06  0.05  0.00  0.89  0.00  0.00  0.00  0.00  0.00
  YS02001887YS02001890    1.00   0.00  0.00  0.00  0.97  0.00  0.03  0.00  0.00  0.00
  YS02001890YS02001895    1.00   0.00  0.16  0.00  0.84  0.00  0.00  0.00  0.00  0.00
  YS02001895YS02001898    1.00   0.16  0.00  0.00  0.82  0.00  0.02  0.00  0.00  0.00
  YS02001898YS02001901    1.00   0.16  0.00  0.00  0.84  0.00  0.00  0.00  0.01  0.00
  YS02001901YS02001904    1.00   0.16  0.00  0.00  0.84  0.00  0.00  0.00  0.00  0.00
  YS02001904YS02001907    1.00   0.00  0.16  0.00  0.84  0.00  0.00  0.00  0.00  0.00
  YS02001907YS02006553    1.00   0.00  0.02  0.00  0.98  0.00  0.00  0.00  0.00  0.00
  YS02001910YS02001907    1.00   0.00  0.00  0.00  0.97  0.00  0.00  0.03  0.12  0.00
  YS02001915YS02001910    1.00   0.00  0.00  0.00  0.97  0.03  0.00  0.00  0.15  0.00
  YS02001918YS02001915    1.00   0.00  0.01  0.00  0.98  0.02  0.00  0.00  0.73  0.00
  YS02001920YS02001918    1.00   0.00  0.01  0.00  0.99  0.00  0.00  0.00  0.00  0.00
  YS02001923YS02001920    1.00   0.00  0.00  0.00  1.00  0.00  0.00  0.00  0.91  0.00
  YS02001926YS02001923    1.00   0.00  0.07  0.00  0.07  0.00  0.86  0.00  0.00  0.00
  YS02001929YS02001926    1.00   0.00  0.13  0.00  0.87  0.00  0.00  0.00  0.81  0.00
  YS02006553YS02006556    1.00   0.01  0.00  0.00  0.99  0.00  0.00  0.00  0.03  0.00
  YS02006556YS02006558    1.00   0.00  0.00  0.00  1.00  0.00  0.00  0.00  0.00  0.00
  YS02006558YS02006561    1.00   0.17  0.00  0.00  0.06  0.77  0.00  0.00  0.18  0.00
  YS02006561YS02001783    1.00   0.17  0.00  0.00  0.10  0.73  0.00  0.00  0.67  0.00
  YS02163301YS02001633    1.00   0.00  0.15  0.00  0.85  0.00  0.00  0.00  0.00  0.00
  YS02163601YS02164001    1.00   0.00  0.08  0.00  0.92  0.00  0.00  0.00  0.00  0.00
  YS02164001YS02001641    1.00   0.01  0.07  0.00  0.92  0.00  0.00  0.00  0.05  0.00
  
  
  *************************
  Conduit Surcharge Summary
  *************************
  
  ----------------------------------------------------------------------------
                                                           Hours        Hours 
                         --------- Hours Full --------   Above Full   Capacity
  Conduit                Both Ends  Upstream  Dnstream   Normal Flow   Limited
  ----------------------------------------------------------------------------
  WS02003072WS02003073        0.01      0.01      0.01      1.20         0.01
  WS02004403WS02004404        0.01      0.01      0.01      0.01         0.01
  WS02004404WS02004405        0.01      0.01      0.01      3.79         0.01
  WS02004405WS02004406        0.01      0.01      0.01      0.72         0.01
  WS02006109WS02006110        0.69      0.69      1.98      0.83         0.01
  WS02006110WS02006113        0.01      0.01      1.96      0.01         0.01
  WS02006111WS02006112        0.01      0.01      2.29      0.01         0.01
  WS02006112WS02006115        0.01      0.01      0.94      0.01         0.01
  WS02006228WS02006109        1.95      1.99      1.95      2.50         1.95
  WS02006229WS02006228        1.95      1.96      1.95      2.19         1.94
  WS02006230WS02006229        2.06      2.15      2.06      4.47         2.06
  WS02006231WS02006230        0.70      0.70      0.93      4.04         0.01
  WS02006232WS02006231        0.86      0.86      2.00      0.94         0.01
  WS02006234WS02006232        1.88      1.89      2.00      0.93         0.90
  WS02006235WS02006234        1.20      1.20      1.89      3.84         0.02
  WS02006238WS02006235        1.91      1.91      2.00      0.01         0.01
  WS02006239WS02006238        1.95      1.96      1.95      2.04         1.74
  WS02006240WS02006239        1.92      1.95      1.92      2.06         1.60
  WS02006242WS02006240        1.95      1.95      1.97      2.22         0.01
  WS02006243WS02006242        1.94      1.94      1.96      0.01         0.06
  WS02006245WS02006243        1.94      1.94      1.94      1.37         1.29
  WS02006247WS02006245        1.94      1.94      1.94      3.49         1.92
  WS02006248WS02006247        1.93      1.93      1.94      0.01         0.07
  WS02006249WS02006248        1.93      1.93      1.93      3.45         0.01
  WS02006251WS02006249        1.93      1.93      1.93      2.20         1.84
  WS02006252WS02006251        2.26      2.26      2.27      2.26         0.01
  WS02006256WS02006235        3.87      3.92      6.78      1.35         0.01
  YS02001580YS02001583        0.69      0.69      0.76      0.01         0.01
  YS02001583YS02001586        0.69      0.69      0.83      0.01         0.01
  YS02001586YS02001590        0.85      0.85      0.93      0.01         0.01
  YS02001590YS02001593        0.92      0.92      0.95      0.93         0.01
  YS02001593YS02001596        0.94      0.94      1.05      0.01         0.01
  YS02001596YS02001600        1.11      1.11      1.21      0.01         0.01
  YS02001600YS02001601        1.27      1.27      1.58      0.01         0.01
  YS02001601YS02001602        1.46      1.46      1.62      1.21         0.01
  YS02001602YS02001605        1.40      1.40      1.46      2.46         0.01
  YS02001605YS02001607        1.35      1.40      1.36      1.51         1.34
  YS02001607YS02001610        0.92      0.92      0.94      0.01         0.01
  YS02001610YS02001613        0.91      0.91      0.94      0.01         0.01
  YS02001613YS02001616        0.87      0.87      0.91      0.01         0.01
  YS02001616YS02001619        0.86      0.86      0.87      0.01         0.04
  YS02001619YS02001622        0.86      0.86      0.86      0.90         0.80
  YS02001622YS02001625        0.86      0.86      1.04      0.01         0.01
  YS02001625YS02001629        0.79      0.79      1.04      0.01         0.01
  YS02001629YS02163301        1.03      1.03      1.05      0.09         0.14
  YS02001633YS02163601        1.07      1.07      1.10      0.28         0.28
  YS02001641YS02001644        0.98      1.01      0.98      1.67         0.96
  YS02001644YS02001647        0.77      0.77      0.98      0.01         0.01
  YS02001647YS02001649        0.77      0.77      0.89      0.01         0.01
  YS02001649YS02001757        0.89      0.89      0.96      0.07         0.05
  YS02001652YS02001649        0.74      0.74      0.89      0.01         0.01
  YS02001655YS02001652        0.55      0.55      0.72      0.01         0.01
  YS02001658YS02001655        0.30      0.30      0.55      0.01         0.01
  YS02001661YS02001658        0.07      0.07      0.30      0.01         0.01
  YS02001664YS02001661        0.01      0.01      0.12      0.01         0.01
  YS02001745YS02001748        0.01      0.01      0.24      0.01         0.01
  YS02001748YS02001751        0.28      0.28      0.42      0.01         0.01
  YS02001751YS02001754        0.42      0.42      0.63      0.01         0.01
  YS02001754YS02001757        0.68      0.68      0.96      0.01         0.01
  YS02001757CaochengTiaoxuchi        0.96      0.96      1.95      0.37         0.36
  YS02001759YS02001757        0.87      0.87      0.96      0.01         0.01
  YS02001762YS02001759        0.85      0.85      0.87      0.01         0.01
  YS02001765YS02001762        0.81      0.81      0.85      0.01         0.01
  YS02001767YS02001765        0.78      0.78      0.81      0.01         0.01
  YS02001770YS02001767        0.78      0.78      0.78      0.56         0.47
  YS02001774YS02001770        0.75      0.75      0.83      0.01         0.01
  YS02001779YS02001774        0.62      0.62      0.83      0.01         0.01
  YS02001783YS02001784        0.57      0.59      0.57      0.78         0.57
  YS02001784YS02001785        0.45      0.57      0.45      1.08         0.45
  YS02001786YS02001788        0.01      0.45      0.01      0.93         0.01
  YS02001790YS02001791        0.01      0.01      0.01      0.55         0.01
  YS02001793JiankangQianchi        0.01      0.01      7.43      0.01         0.01
  YS02001882YS02001884        0.53      0.53      0.54      0.01         0.01
  YS02001884YS02001887        0.57      0.57      0.58      0.01         0.01
  YS02001887YS02001890        0.60      0.60      0.61      0.13         0.01
  YS02001890YS02001895        0.52      0.52      0.63      0.01         0.01
  YS02001895YS02001898        0.52      0.52      0.52      0.01         0.01
  YS02001898YS02001901        0.52      0.52      0.57      0.01         0.01
  YS02001901YS02001904        0.56      0.56      0.57      0.01         0.01
  YS02001904YS02001907        0.56      0.56      0.91      0.01         0.01
  YS02001907YS02006553        1.10      1.10      1.17      0.01         0.01
  YS02001910YS02001907        0.63      0.63      0.88      0.01         0.01
  YS02001915YS02001910        0.53      0.53      0.63      0.01         0.01
  YS02001918YS02001915        0.44      0.44      0.53      0.01         0.01
  YS02001920YS02001918        0.44      0.44      0.45      0.01         0.01
  YS02001923YS02001920        0.39      0.39      0.45      0.01         0.01
  YS02001926YS02001923        0.12      0.12      0.15      0.01         0.01
  YS02001929YS02001926        0.01      0.01      0.15      0.01         0.01
  YS02006553YS02006556        0.74      0.74      0.90      0.01         0.01
  YS02006556YS02006558        0.83      0.83      0.93      0.01         0.01
  YS02006558YS02006561        0.47      0.72      0.47      1.02         0.47
  YS02006561YS02001783        0.40      0.40      0.59      0.01         0.01
  YS02163301YS02001633        1.05      1.05      1.09      0.01         0.01
  YS02163601YS02164001        1.01      1.01      1.10      0.10         0.01
  YS02164001YS02001641        1.00      1.01      1.01      0.71         0.60
  
  
  ***************
  Pumping Summary
  ***************
  
  ---------------------------------------------------------------------------------------------------------
                                                  Min       Avg       Max     Total     Power    % Time Off
                        Percent   Number of      Flow      Flow      Flow    Volume     Usage    Pump Curve
  Pump                 Utilized   Start-Ups       LPS       LPS       LPS  10^6 ltr     Kw-hr    Low   High
  ---------------------------------------------------------------------------------------------------------
  CC-R1                   21.64           8      0.00    683.00    683.00     4.256     80.08    0.0   19.6
  CC-R2                   18.26           8      0.00    683.00    683.00     3.592     67.75    0.0   23.7
  CC-S1                   43.46           8      0.00    200.00    200.00     2.503     14.26    0.0    0.0
  CC-S2                   29.35           8      0.00    200.00    200.00     1.691      9.36    0.0    0.0
  JK-R1                    9.65          15      0.00   1000.00   1000.00     2.778     32.02    0.0    0.0
  JK-R2                    1.21           2      0.00   1000.00   1000.00     0.347      3.42    0.0    0.0
  JK-S                    16.70          29      0.00    300.00    300.00     1.443     20.01    0.0    0.0
  

  Analysis begun on:  Mon Feb 24 09:51:02 2025
  Analysis ended on:  Mon Feb 24 09:51:03 2025
  Total elapsed time: 00:00:01