
  EPA STORM WATER MANAGEMENT MODEL - VERSION 5.2 (Build 5.2.4)
  PYSWMM TOOLKIT API - VERSION v1.0 (2023-11-27)
  ------------------------------------------------------------

  WARNING 04: minimum elevation drop used for Conduit WS02004404WS02004405
  WARNING 03: negative offset ignored for Link YS02001904YS02001907
  
  ****************
  Analysis Options
  ****************
  Flow Units ............... LPS
  Process Models:
    Rainfall/Runoff ........ YES
    RDII ................... NO
    Snowmelt ............... NO
    Groundwater ............ NO
    Flow Routing ........... YES
    Ponding Allowed ........ NO
    Water Quality .......... NO
  Infiltration Method ...... HORTON
  Flow Routing Method ...... DYNWAVE
  Surcharge Method ......... EXTRAN
  Starting Date ............ 08/28/2015 08:00:00
  Ending Date .............. 08/28/2015 16:00:00
  Antecedent Dry Days ...... 8.0
  Report Time Step ......... 00:01:00
  Wet Time Step ............ 00:01:00
  Dry Time Step ............ 00:01:00
  Routing Time Step ........ 30.00 sec
  Variable Time Step ....... YES
  Maximum Trials ........... 8
  Number of Threads ........ 4
  Head Tolerance ........... 0.001500 m
  
  
  **************************        Volume         Depth
  Runoff Quantity Continuity     hectare-m            mm
  **************************     ---------       -------
  Total Precipitation ......         1.505        45.382
  Evaporation Loss .........         0.000         0.000
  Infiltration Loss ........         0.092         2.788
  Surface Runoff ...........         1.380        41.615
  Final Storage ............         0.033         0.992
  Continuity Error (%) .....        -0.030
  
  
  **************************        Volume        Volume
  Flow Routing Continuity        hectare-m      10^6 ltr
  **************************     ---------     ---------
  Dry Weather Inflow .......         0.025         0.251
  Wet Weather Inflow .......         1.380        13.797
  Groundwater Inflow .......         0.000         0.000
  RDII Inflow ..............         0.000         0.000
  External Inflow ..........         0.083         0.834
  External Outflow .........         1.300        13.000
  Flooding Loss ............         0.257         2.572
  Evaporation Loss .........         0.000         0.000
  Exfiltration Loss ........         0.000         0.000
  Initial Stored Volume ....         0.243         2.431
  Final Stored Volume ......         0.182         1.816
  Continuity Error (%) .....        -0.439
  
  
  *************************
  Highest Continuity Errors
  *************************
  Node YS02001583 (-15.00%)
  Node YS02001884 (5.23%)
  Node WS02006256 (-1.44%)
  Node YS02001774 (1.35%)
  
  
  ***************************
  Time-Step Critical Elements
  ***************************
  Link WS02006252WS02006251 (42.81%)
  Link WS02004404WS02004405 (19.31%)
  Link WS02006238WS02006235 (14.37%)
  Link WS02003066WSF200 (5.47%)
  Link YS02001791YS02001793 (4.41%)
  
  
  ********************************
  Highest Flow Instability Indexes
  ********************************
  Link WS02006113WS02006111 (48)
  Link WS02006111WS02006112 (20)
  Link WS02004404WS02004405 (19)
  Link WS02004403WS02004404 (17)
  Link WS02006252WS02006251 (17)
  
  
  *********************************
  Most Frequent Nonconverging Nodes
  *********************************
  Node CC-1 (15.48%)
  Node CC-2 (15.48%)
  Node JK-1 (15.48%)
  Node JK-2 (15.48%)
  Node WSC (15.48%)
  
  
  *************************
  Routing Time Step Summary
  *************************
  Minimum Time Step           :     0.01 sec
  Average Time Step           :     2.09 sec
  Maximum Time Step           :     7.04 sec
  % of Time in Steady State   :     0.00
  Average Iterations per Step :     3.27
  % of Steps Not Converging   :    15.48
  Time Step Frequencies       :
     30.000 - 13.228 sec      :     0.00 %
     13.228 -  5.833 sec      :     9.67 %
      5.833 -  2.572 sec      :    19.45 %
      2.572 -  1.134 sec      :    22.45 %
      1.134 -  0.500 sec      :    48.43 %
  
  
  ***************************
  Subcatchment Runoff Summary
  ***************************
  
  ------------------------------------------------------------------------------------------------------------------------------
                            Total      Total      Total      Total     Imperv       Perv      Total       Total     Peak  Runoff
                           Precip      Runon       Evap      Infil     Runoff     Runoff     Runoff      Runoff   Runoff   Coeff
  Subcatchment                 mm         mm         mm         mm         mm         mm         mm    10^6 ltr      LPS
  ------------------------------------------------------------------------------------------------------------------------------
  sub60                     45.38       0.00       0.00       1.72      38.73       3.73      42.46        0.56   363.55   0.936
  sub61                     45.38       0.00       0.00       2.48      36.54       5.24      41.77        0.77   497.94   0.920
  sub62                     45.38       0.00       0.00       1.15      40.47       2.49      42.95        1.18   694.96   0.946
  sub63                     45.38       0.00       0.00       4.53      31.25       8.64      39.89        0.91   531.64   0.879
  sub64                     45.38       0.00       0.00       2.30      37.37       4.51      41.88        1.01   544.40   0.923
  sub65                     45.38       0.00       0.00       1.99      38.23       3.91      42.15        1.16   603.16   0.929
  sub66                     45.38       0.00       0.00       5.51      31.15       7.65      38.80        1.81   744.04   0.855
  sub67                     45.38       0.00       0.00       1.11      40.51       2.52      43.03        0.80   566.97   0.948
  sub68                     45.38       0.00       0.00       2.05      37.84       4.30      42.15        1.16   711.18   0.929
  sub69                     45.38       0.00       0.00       1.78      38.47       5.03      43.50        1.61   821.73   0.958
  sub70                     45.38       0.00       0.00       5.81      29.79       9.62      39.41        1.14   424.01   0.868
  sub71                     45.38       0.00       0.00       1.17      40.43       2.46      42.89        1.12   592.47   0.945
  sub72                     45.38       0.00       0.00       1.04      40.81       2.14      42.95        0.59   278.07   0.946
  
  
  ******************
  Node Depth Summary
  ******************
  
  ---------------------------------------------------------------------------------
                                 Average  Maximum  Maximum  Time of Max    Reported
                                   Depth    Depth      HGL   Occurrence   Max Depth
  Node                 Type       Meters   Meters   Meters  days hr:min      Meters
  ---------------------------------------------------------------------------------
  WS02003060           JUNCTION     0.24     0.38     5.31     0  02:43        0.38
  WS02003066           JUNCTION     0.20     0.30     5.85     0  02:43        0.30
  WS02003067           JUNCTION     0.51     0.70     6.02     0  02:43        0.70
  WS02003069           JUNCTION     0.26     0.43     5.01     0  02:44        0.43
  WS02003072           JUNCTION     0.33     0.50     4.87     0  02:44        0.50
  WS02003073           JUNCTION     0.19     0.30     4.36     0  02:45        0.30
  WS02004401           JUNCTION     0.60     0.87     6.87     0  02:40        0.87
  WS02004402           JUNCTION     0.63     0.90     6.86     0  02:40        0.90
  WS02004403           JUNCTION     0.66     0.92     6.85     0  02:41        0.92
  WS02004404           JUNCTION     0.73     1.01     6.86     0  02:40        1.00
  WS02004405           JUNCTION     0.72     0.97     6.82     0  02:40        0.96
  WS02004406           JUNCTION     0.73     0.96     6.79     0  02:41        0.96
  WS02004407           JUNCTION     0.18     0.30     6.61     0  02:41        0.30
  WS02004409           JUNCTION     0.40     0.67     6.44     0  02:41        0.67
  WS02004410           JUNCTION     0.42     0.68     6.40     0  02:42        0.68
  WS02004411           JUNCTION     0.44     0.69     6.37     0  02:42        0.69
  WS02004412           JUNCTION     0.46     0.70     6.34     0  02:42        0.70
  WS02004413           JUNCTION     0.62     0.86     6.33     0  02:42        0.86
  WS02006109           JUNCTION     0.65     1.22     7.83     0  02:01        1.07
  WS02006110           JUNCTION     0.65     1.21     7.80     0  02:13        1.00
  WS02006111           JUNCTION     0.18     0.29     6.99     0  02:36        0.29
  WS02006112           JUNCTION     0.75     1.10     6.98     0  03:04        1.08
  WS02006113           JUNCTION     0.27     0.46     7.35     0  02:23        0.46
  WS02006115           JUNCTION     0.48     0.77     6.91     0  02:40        0.77
  WS02006116           JUNCTION     0.57     0.85     6.89     0  02:40        0.85
  WS02006228           JUNCTION     0.64     1.27     7.92     0  02:01        1.23
  WS02006229           JUNCTION     0.61     1.28     7.97     0  02:13        1.28
  WS02006230           JUNCTION     0.61     1.45     8.19     0  02:13        1.45
  WS02006231           JUNCTION     0.42     1.54     8.66     0  01:50        1.28
  WS02006232           JUNCTION     0.55     1.54     8.58     0  01:49        1.54
  WS02006234           JUNCTION     0.48     1.68     8.83     0  02:18        1.64
  WS02006235           JUNCTION     0.51     1.98     9.15     0  02:18        1.88
  WS02006238           JUNCTION     0.54     2.05     9.20     0  02:18        1.94
  WS02006239           JUNCTION     0.51     1.99     9.19     0  02:18        1.80
  WS02006240           JUNCTION     0.47     1.81     9.10     0  02:18        1.64
  WS02006242           JUNCTION     0.54     1.55     8.82     0  02:06        1.55
  WS02006243           JUNCTION     0.45     1.48     8.90     0  01:55        1.48
  WS02006245           JUNCTION     0.46     1.41     8.89     0  02:12        1.34
  WS02006247           JUNCTION     0.48     1.33     8.83     0  02:12        1.28
  WS02006248           JUNCTION     0.44     1.10     8.69     0  01:49        1.10
  WS02006249           JUNCTION     0.48     1.09     8.69     0  01:48        1.09
  WS02006251           JUNCTION     0.47     1.49     9.16     0  02:12        1.40
  WS02006252           JUNCTION     0.34     1.50     9.74     0  00:00        0.97
  WS02006256           JUNCTION     0.98     2.35     9.28     0  00:00        2.35
  WSF200               JUNCTION     0.17     0.29     5.52     0  02:43        0.29
  YS02001580           JUNCTION     0.07     1.05     9.59     0  01:37        0.78
  YS02001583           JUNCTION     0.11     1.14     9.64     0  01:37        0.82
  YS02001586           JUNCTION     0.16     1.13     9.30     0  01:36        1.13
  YS02001590           JUNCTION     0.25     1.40     9.26     0  01:37        1.38
  YS02001593           JUNCTION     0.18     1.41     9.28     0  01:55        1.41
  YS02001596           JUNCTION     0.25     1.70     9.12     0  01:37        1.66
  YS02001600           JUNCTION     0.30     1.87     9.00     0  01:37        1.86
  YS02001601           JUNCTION     0.49     2.06     8.90     0  01:36        2.06
  YS02001602           JUNCTION     0.40     1.87     8.77     0  01:37        1.87
  YS02001605           JUNCTION     0.38     1.78     8.68     0  01:37        1.78
  YS02001607           JUNCTION     0.38     1.68     8.53     0  01:37        1.68
  YS02001610           JUNCTION     0.43     1.68     8.48     0  01:37        1.68
  YS02001613           JUNCTION     0.38     1.70     8.54     0  01:37        1.70
  YS02001616           JUNCTION     0.31     1.61     8.52     0  01:37        1.61
  YS02001619           JUNCTION     0.29     1.61     8.54     0  01:37        1.61
  YS02001622           JUNCTION     0.28     1.62     8.52     0  01:55        1.62
  YS02001625           JUNCTION     0.55     1.78     8.38     0  01:37        1.78
  YS02001629           JUNCTION     0.39     1.85     8.40     0  01:37        1.85
  YS02001633           JUNCTION     0.47     2.04     8.49     0  01:40        2.04
  YS02001641           JUNCTION     0.46     2.10     8.54     0  01:55        2.10
  YS02001644           JUNCTION     0.45     1.92     8.35     0  01:39        1.91
  YS02001647           JUNCTION     0.24     1.90     8.51     0  01:55        1.90
  YS02001649           JUNCTION     0.28     2.03     8.42     0  01:41        2.01
  YS02001652           JUNCTION     0.18     2.15     8.74     0  01:41        1.58
  YS02001655           JUNCTION     0.13     2.20     9.05     0  01:41        1.37
  YS02001658           JUNCTION     0.09     2.30     9.44     0  01:41        1.10
  YS02001661           JUNCTION     0.13     0.86     8.26     0  01:41        0.86
  YS02001664           JUNCTION     0.04     0.28     8.20     0  01:40        0.28
  YS02001745           JUNCTION     0.04     0.59     8.10     0  01:41        0.59
  YS02001748           JUNCTION     0.08     1.05     8.13     0  01:41        0.98
  YS02001751           JUNCTION     0.11     1.81     8.69     0  01:43        1.16
  YS02001754           JUNCTION     0.15     1.84     8.44     0  01:43        1.42
  YS02001757           JUNCTION     0.31     1.94     8.20     0  01:41        1.74
  YS02001759           JUNCTION     0.24     1.91     8.27     0  01:41        1.70
  YS02001762           JUNCTION     0.23     1.89     8.29     0  01:41        1.68
  YS02001765           JUNCTION     0.21     1.88     8.33     0  01:41        1.67
  YS02001767           JUNCTION     0.21     1.86     8.35     0  01:41        1.78
  YS02001770           JUNCTION     0.22     1.95     8.44     0  01:39        1.95
  YS02001774           JUNCTION     0.29     2.05     8.47     0  01:41        2.05
  YS02001779           JUNCTION     0.13     1.68     8.37     0  01:39        1.68
  YS02001783           JUNCTION     0.20     1.36     7.50     0  01:39        1.30
  YS02001784           JUNCTION     0.22     1.39     7.46     0  01:55        1.13
  YS02001786           JUNCTION     0.19     0.94     6.97     0  01:38        0.87
  YS02001788           JUNCTION     0.13     0.62     6.60     0  01:39        0.62
  YS02001790           JUNCTION     0.16     0.72     6.37     0  01:40        0.72
  YS02001791           JUNCTION     0.10     0.44     5.91     0  01:44        0.43
  YS02001793           JUNCTION     0.05     0.30     5.13     0  01:40        0.28
  YS02001882           JUNCTION     0.27     1.83     8.55     0  01:38        1.63
  YS02001884           JUNCTION     0.36     1.91     8.53     0  01:38        1.72
  YS02001887           JUNCTION     0.44     1.91     8.45     0  01:38        1.80
  YS02001890           JUNCTION     0.47     1.81     8.32     0  01:38        1.81
  YS02001895           JUNCTION     0.24     1.75     8.50     0  01:38        1.56
  YS02001898           JUNCTION     0.25     1.77     8.51     0  01:38        1.77
  YS02001901           JUNCTION     0.36     1.87     8.48     0  01:38        1.67
  YS02001904           JUNCTION     0.34     1.85     8.48     0  01:38        1.64
  YS02001907           JUNCTION     0.66     1.96     8.25     0  01:38        1.96
  YS02001910           JUNCTION     0.46     1.97     8.48     0  01:39        1.84
  YS02001915           JUNCTION     0.27     1.91     8.63     0  01:39        1.69
  YS02001918           JUNCTION     0.14     1.81     8.88     0  01:39        1.40
  YS02001920           JUNCTION     0.22     2.14     9.15     0  01:39        1.48
  YS02001923           JUNCTION     0.10     2.03     9.29     0  01:39        1.25
  YS02001926           JUNCTION     0.14     1.90     9.35     0  01:39        1.10
  YS02001929           JUNCTION     0.07     1.78     9.47     0  01:39        0.91
  YS02006553           JUNCTION     0.67     2.00     8.29     0  01:39        1.97
  YS02006556           JUNCTION     0.64     2.01     8.32     0  01:39        1.94
  YS02006558           JUNCTION     0.68     2.07     8.33     0  01:39        2.01
  YS02006561           JUNCTION     0.13     1.06     7.72     0  01:39        1.06
  YS02163301           JUNCTION     0.41     2.03     8.55     0  01:55        2.03
  YS02163601           JUNCTION     0.51     2.08     8.48     0  01:55        2.08
  YS02164001           JUNCTION     0.44     2.10     8.56     0  01:55        2.10
  CC-1                 OUTFALL      0.00     0.00     0.00     0  00:00        0.00
  CC-2                 OUTFALL      0.00     0.00     0.00     0  00:00        0.00
  JK-1                 OUTFALL      0.00     0.00     0.00     0  00:00        0.00
  JK-2                 OUTFALL      0.00     0.00     0.00     0  00:00        0.00
  WSC                  OUTFALL      0.19     0.30     0.97     0  02:45        0.30
  CC-storage           STORAGE      0.89     1.44     6.94     0  02:07        1.44
  JK-storage           STORAGE      3.05     4.24     5.04     0  01:40        4.20
  
  
  *******************
  Node Inflow Summary
  *******************
  
  -------------------------------------------------------------------------------------------------
                                  Maximum  Maximum                  Lateral       Total        Flow
                                  Lateral    Total  Time of Max      Inflow      Inflow     Balance
                                   Inflow   Inflow   Occurrence      Volume      Volume       Error
  Node                 Type           LPS      LPS  days hr:min    10^6 ltr    10^6 ltr     Percent
  -------------------------------------------------------------------------------------------------
  WS02003060           JUNCTION     16.53   551.66     0  02:43       0.476        5.45       0.042
  WS02003066           JUNCTION      0.00   534.92     0  02:43           0        4.97       0.029
  WS02003067           JUNCTION      0.00   534.88     0  02:42           0        4.98       0.085
  WS02003069           JUNCTION      0.32   551.79     0  02:43     0.00922        5.45       0.075
  WS02003072           JUNCTION      0.00   551.33     0  02:44           0        5.45       0.132
  WS02003073           JUNCTION      1.82   552.80     0  02:44      0.0524        5.49       0.107
  WS02004401           JUNCTION      0.00   538.61     0  02:48           0        5.08       0.203
  WS02004402           JUNCTION      0.00   537.83     0  02:37           0        5.07       0.207
  WS02004403           JUNCTION      0.00   538.37     0  02:37           0        5.06       0.199
  WS02004404           JUNCTION      0.16   554.35     0  02:41     0.00467        5.05       0.193
  WS02004405           JUNCTION      0.04   598.05     0  02:06      0.0011        5.04       0.170
  WS02004406           JUNCTION      0.00   541.54     0  02:40           0        5.03       0.413
  WS02004407           JUNCTION      0.00   537.90     0  02:41           0        5.01       0.025
  WS02004409           JUNCTION      0.00   537.46     0  02:41           0        5.01       0.057
  WS02004410           JUNCTION      0.00   536.75     0  02:41           0        5.01       0.090
  WS02004411           JUNCTION      0.00   535.99     0  02:42           0           5       0.115
  WS02004412           JUNCTION      0.00   535.65     0  02:42           0           5       0.153
  WS02004413           JUNCTION      0.00   535.34     0  02:42           0        4.99       0.269
  WS02006109           JUNCTION      1.23   568.44     0  01:49      0.0354        5.12       0.154
  WS02006110           JUNCTION      0.00   570.26     0  01:49           0        5.11       0.132
  WS02006111           JUNCTION      0.00   562.59     0  03:35           0        5.11       0.016
  WS02006112           JUNCTION      0.00   544.34     0  02:03           0         5.1       0.339
  WS02006113           JUNCTION      0.00   576.79     0  02:30           0        5.11       0.041
  WS02006115           JUNCTION      0.00   557.01     0  03:25           0        5.09       0.133
  WS02006116           JUNCTION      0.00   539.71     0  03:25           0        5.08       0.088
  WS02006228           JUNCTION      0.00   564.96     0  01:49           0        5.09       0.044
  WS02006229           JUNCTION      0.00   564.36     0  01:49           0        5.09       0.100
  WS02006230           JUNCTION     10.28   595.48     0  02:07       0.296         5.1       0.052
  WS02006231           JUNCTION      0.00   594.23     0  02:06           0         4.8      -0.034
  WS02006232           JUNCTION      0.00   592.00     0  02:06           0        4.81       0.240
  WS02006234           JUNCTION      0.00   580.85     0  02:06           0         4.8      -0.265
  WS02006235           JUNCTION      0.00   567.74     0  02:21           0        4.87       0.223
  WS02006238           JUNCTION      0.00   426.40     0  02:15           0        3.93      -0.181
  WS02006239           JUNCTION      0.00   423.67     0  02:15           0        3.88      -0.188
  WS02006240           JUNCTION      0.00   419.93     0  02:10           0        3.85      -0.064
  WS02006242           JUNCTION      0.00   420.14     0  02:10           0        3.83       0.027
  WS02006243           JUNCTION      0.00   420.45     0  02:10           0        3.82      -0.011
  WS02006245           JUNCTION      0.00   420.71     0  02:10           0        3.84       0.382
  WS02006247           JUNCTION      0.00   420.70     0  02:15           0        3.84       0.021
  WS02006248           JUNCTION      0.00   420.32     0  02:15           0        3.84       0.080
  WS02006249           JUNCTION      0.00   459.02     0  00:00           0        4.09       0.409
  WS02006251           JUNCTION      0.08   408.40     0  02:58     0.00222        4.09       0.002
  WS02006252           JUNCTION      0.00   400.00     0  00:00           0        4.08      -0.158
  WS02006256           JUNCTION      0.00   300.00     0  00:00           0        1.42      -1.417
  WSF200               JUNCTION      0.00   534.98     0  02:43           0        4.97       0.010
  YS02001580           JUNCTION      0.00   246.66     0  01:37           0     0.00463       2.025
  YS02001583           JUNCTION      0.00   262.64     0  01:37           0      0.0146     -13.043
  YS02001586           JUNCTION    424.01   424.07     0  01:43        1.14        1.15       0.138
  YS02001590           JUNCTION      0.00   320.67     0  01:55           0        1.06      -0.033
  YS02001593           JUNCTION      0.00   318.21     0  01:48           0        1.06       0.056
  YS02001596           JUNCTION      0.00   318.07     0  01:50           0        1.06       0.006
  YS02001600           JUNCTION      0.00   318.23     0  01:51           0        1.06       0.014
  YS02001601           JUNCTION    821.73  1139.26     0  01:41        1.61        2.67       0.039
  YS02001602           JUNCTION      0.00   595.44     0  01:37           0        1.92       0.029
  YS02001605           JUNCTION      0.00   595.29     0  01:37           0        1.85       0.026
  YS02001607           JUNCTION      0.00   595.13     0  01:37           0        1.85       0.065
  YS02001610           JUNCTION      0.00   564.85     0  01:37           0        1.84       0.108
  YS02001613           JUNCTION      0.00   532.01     0  01:37           0        1.63       0.081
  YS02001616           JUNCTION      0.00   488.67     0  01:37           0        1.63       0.008
  YS02001619           JUNCTION    744.04   929.49     0  01:37        1.81        3.44      -0.016
  YS02001622           JUNCTION      0.00   843.15     0  01:37           0        3.44       0.002
  YS02001625           JUNCTION      0.00   839.67     0  02:00           0        3.44       0.260
  YS02001629           JUNCTION      0.00   840.21     0  02:00           0         3.1       0.016
  YS02001633           JUNCTION    603.36  1346.31     0  01:38        1.17        4.27       0.082
  YS02001641           JUNCTION      0.00  1344.02     0  01:38           0        4.27       0.068
  YS02001644           JUNCTION    544.44  1849.69     0  01:38        1.01        5.27       0.063
  YS02001647           JUNCTION      0.00  1849.72     0  01:38           0        5.26       0.009
  YS02001649           JUNCTION      0.00  2177.32     0  01:39           0        6.17       0.006
  YS02001652           JUNCTION      0.00   627.42     0  01:42           0       0.909      -0.289
  YS02001655           JUNCTION      0.15   776.51     0  01:39     0.00443       0.909       0.033
  YS02001658           JUNCTION      0.00   648.49     0  01:40           0       0.905      -0.033
  YS02001661           JUNCTION      0.00   533.34     0  01:40           0       0.905       0.039
  YS02001664           JUNCTION    531.64   531.64     0  01:40       0.905       0.905      -0.010
  YS02001745           JUNCTION    363.56   363.56     0  01:39       0.558       0.558       0.287
  YS02001748           JUNCTION      0.04   598.47     0  01:40      0.0013        0.56      -0.316
  YS02001751           JUNCTION      0.01   538.06     0  01:43    0.000317       0.568       0.155
  YS02001754           JUNCTION      0.26   449.28     0  01:41     0.00749       0.577      -0.422
  YS02001757           JUNCTION      0.00  3323.71     0  01:42           0         8.7       0.077
  YS02001759           JUNCTION    497.98  1261.92     0  01:40       0.767        1.96      -0.009
  YS02001762           JUNCTION      0.00   760.13     0  01:40           0        1.19      -0.007
  YS02001765           JUNCTION      0.00   751.02     0  01:40           0        1.19       0.016
  YS02001767           JUNCTION      0.54   744.07     0  01:40      0.0154        1.19       0.012
  YS02001770           JUNCTION    695.11   722.24     0  01:40        1.18        1.22      -0.011
  YS02001774           JUNCTION      0.00   389.10     0  01:39           0      0.0654       1.369
  YS02001779           JUNCTION      0.01   359.67     0  01:39    0.000144      0.0224      -3.794
  YS02001783           JUNCTION      0.00  1152.33     0  01:40           0        3.29       0.009
  YS02001784           JUNCTION      1.06  1153.61     0  01:39      0.0305        3.32       0.023
  YS02001786           JUNCTION      0.06  1154.29     0  01:39     0.00162        3.33       0.009
  YS02001788           JUNCTION      0.07  1155.61     0  01:39     0.00204        3.33       0.009
  YS02001790           JUNCTION      0.15  1161.61     0  01:43     0.00446        3.33       0.026
  YS02001791           JUNCTION      0.00  1285.08     0  01:39           0        3.33      -0.022
  YS02001793           JUNCTION      0.00  1234.72     0  01:48           0        3.33       0.009
  YS02001882           JUNCTION      0.00    65.17     0  01:37           0      0.0126       4.860
  YS02001884           JUNCTION      0.00   120.09     0  01:37           0      0.0486       5.523
  YS02001887           JUNCTION    567.42   583.59     0  01:38       0.813       0.846       0.525
  YS02001890           JUNCTION      0.00   591.54     0  01:38           0       0.805       0.638
  YS02001895           JUNCTION      0.00   598.25     0  01:38           0       0.793       0.202
  YS02001898           JUNCTION      0.00   602.69     0  01:38           0       0.792      -0.047
  YS02001901           JUNCTION      0.00   608.00     0  01:38           0       0.795       0.417
  YS02001904           JUNCTION      0.00   609.70     0  01:38           0       0.808       0.329
  YS02001907           JUNCTION      0.00  1547.58     0  01:40           0         2.6       0.700
  YS02001910           JUNCTION      0.00  1032.95     0  01:40           0         1.8       0.409
  YS02001915           JUNCTION    592.49  1031.80     0  01:40        1.12        1.86       0.051
  YS02001918           JUNCTION      0.00   722.05     0  01:38           0       0.769       0.028
  YS02001920           JUNCTION      2.87   599.97     0  01:38      0.0827       0.738       0.064
  YS02001923           JUNCTION      0.04   734.31     0  01:38     0.00109       0.635      -0.156
  YS02001926           JUNCTION      0.05  1064.51     0  01:39      0.0015       0.612      -0.292
  YS02001929           JUNCTION    278.07   948.74     0  01:39        0.59       0.596      -0.149
  YS02006553           JUNCTION      0.00   803.40     0  01:55           0        2.17       0.553
  YS02006556           JUNCTION      0.00   805.34     0  01:55           0        2.18       0.381
  YS02006558           JUNCTION    712.06  1176.90     0  01:38        1.18        3.33       0.112
  YS02006561           JUNCTION      0.00  1173.46     0  01:38           0        3.29      -0.005
  YS02163301           JUNCTION      0.00   843.79     0  02:00           0        3.11       0.042
  YS02163601           JUNCTION      0.11  1344.05     0  01:38     0.00317        4.27       0.116
  YS02164001           JUNCTION      0.00  1343.01     0  01:38           0        4.27       0.062
  CC-1                 OUTFALL       0.00   683.00     0  00:00           0        3.63       0.000
  CC-2                 OUTFALL       0.00   683.00     0  00:00           0        1.86       0.000
  JK-1                 OUTFALL       0.00  1000.00     0  00:00           0         1.9       0.000
  JK-2                 OUTFALL       0.00  1000.00     0  00:00           0       0.134       0.000
  WSC                  OUTFALL       0.00   552.32     0  02:45           0        5.49       0.000
  CC-storage           STORAGE       0.00  3324.39     0  01:42           0        10.9      -0.288
  JK-storage           STORAGE       0.00  1212.95     0  01:48           0        3.48      -0.483
  
  
  **********************
  Node Surcharge Summary
  **********************
  
  Surcharging occurs when water rises above the top of the highest conduit.
  ---------------------------------------------------------------------
                                               Max. Height   Min. Depth
                                   Hours       Above Crown    Below Rim
  Node                 Type      Surcharged         Meters       Meters
  ---------------------------------------------------------------------
  WS02004404           JUNCTION        0.01          0.011        2.769
  WS02006109           JUNCTION        1.98          0.396        1.424
  WS02006110           JUNCTION        0.67          0.303        1.547
  WS02006112           JUNCTION        1.04          0.098        1.582
  WS02006228           JUNCTION        1.97          0.439        1.761
  WS02006229           JUNCTION        1.98          0.479        1.971
  WS02006230           JUNCTION        0.68          0.367        1.203
  WS02006231           JUNCTION        0.93          0.829        0.701
  WS02006232           JUNCTION        2.00          0.839        0.641
  WS02006234           JUNCTION        1.56          0.956        0.284
  WS02006235           JUNCTION        1.91          1.272        0.018
  WS02006238           JUNCTION        1.98          1.332        0.098
  WS02006239           JUNCTION        1.95          1.245        0.045
  WS02006240           JUNCTION        1.98          1.100        0.290
  WS02006242           JUNCTION        2.01          0.820        0.000
  WS02006243           JUNCTION        1.97          0.770        0.000
  WS02006245           JUNCTION        1.97          0.696        0.154
  WS02006247           JUNCTION        1.97          0.618        0.142
  WS02006248           JUNCTION        1.96          0.380        0.000
  WS02006249           JUNCTION        1.96          0.390        0.000
  WS02006251           JUNCTION        1.06          0.458        0.722
  WS02006252           JUNCTION        2.29          1.100        0.000
  WS02006256           JUNCTION        6.66          2.050        0.000
  YS02001580           JUNCTION        0.41          0.450        0.000
  YS02001583           JUNCTION        0.42          0.500        0.000
  YS02001586           JUNCTION        0.57          0.510        0.000
  YS02001590           JUNCTION        0.63          0.750        0.000
  YS02001593           JUNCTION        0.63          0.795        0.045
  YS02001596           JUNCTION        0.72          0.975        0.095
  YS02001600           JUNCTION        0.83          1.190        0.000
  YS02001601           JUNCTION        1.19          1.440        0.000
  YS02001602           JUNCTION        1.06          1.270        0.000
  YS02001605           JUNCTION        1.01          1.180        0.000
  YS02001607           JUNCTION        0.59          0.680        0.000
  YS02001610           JUNCTION        0.60          0.680        0.000
  YS02001613           JUNCTION        0.58          0.700        0.000
  YS02001616           JUNCTION        0.54          0.610        0.000
  YS02001619           JUNCTION        0.54          0.610        0.000
  YS02001622           JUNCTION        0.53          0.620        0.000
  YS02001625           JUNCTION        0.69          0.780        0.000
  YS02001629           JUNCTION        0.47          0.470        0.000
  YS02001633           JUNCTION        0.70          1.015        0.045
  YS02001641           JUNCTION        0.63          1.100        0.000
  YS02001644           JUNCTION        0.61          0.920        0.000
  YS02001647           JUNCTION        0.43          0.900        0.000
  YS02001649           JUNCTION        0.53          1.027        0.023
  YS02001652           JUNCTION        0.34          1.117        0.013
  YS02001655           JUNCTION        0.17          1.200        0.000
  YS02001658           JUNCTION        0.02          1.300        0.000
  YS02001751           JUNCTION        0.05          0.814        0.386
  YS02001754           JUNCTION        0.19          0.786        0.364
  YS02001757           JUNCTION        0.58          0.940        0.270
  YS02001759           JUNCTION        0.48          0.907        0.303
  YS02001762           JUNCTION        0.45          0.885        0.265
  YS02001765           JUNCTION        0.40          0.877        0.223
  YS02001767           JUNCTION        0.37          0.864        0.166
  YS02001770           JUNCTION        0.35          0.920        0.000
  YS02001774           JUNCTION        0.43          1.050        0.000
  YS02001779           JUNCTION        0.21          0.680        0.000
  YS02001783           JUNCTION        0.42          0.556        1.044
  YS02001784           JUNCTION        0.40          0.594        0.896
  YS02001786           JUNCTION        0.30          0.137        1.293
  YS02001882           JUNCTION        0.37          0.830        0.000
  YS02001884           JUNCTION        0.38          0.850        0.020
  YS02001887           JUNCTION        0.41          0.859        0.091
  YS02001890           JUNCTION        0.42          0.760        0.000
  YS02001895           JUNCTION        0.36          0.750        0.000
  YS02001898           JUNCTION        0.35          0.740        0.000
  YS02001901           JUNCTION        0.40          0.870        0.000
  YS02001904           JUNCTION        0.39          0.846        0.004
  YS02001907           JUNCTION        0.58          0.950        0.000
  YS02001910           JUNCTION        0.44          0.971        0.129
  YS02001915           JUNCTION        0.37          0.911        0.089
  YS02001918           JUNCTION        0.29          0.810        0.000
  YS02001920           JUNCTION        0.30          1.140        0.000
  YS02001923           JUNCTION        0.01          0.820        0.000
  YS02001926           JUNCTION        0.02          0.900        0.000
  YS02001929           JUNCTION        0.01          0.780        0.000
  YS02006553           JUNCTION        0.59          1.004        0.186
  YS02006556           JUNCTION        0.51          0.973        0.377
  YS02006558           JUNCTION        0.50          0.967        0.433
  YS02006561           JUNCTION        0.25          0.263        0.887
  YS02163301           JUNCTION        0.68          1.030        0.000
  YS02163601           JUNCTION        0.72          1.080        0.000
  YS02164001           JUNCTION        0.64          1.100        0.000
  
  
  *********************
  Node Flooding Summary
  *********************
  
  Flooding refers to all water that overflows a node, whether it ponds or not.
  --------------------------------------------------------------------------
                                                             Total   Maximum
                                 Maximum   Time of Max       Flood    Ponded
                        Hours       Rate    Occurrence      Volume     Depth
  Node                 Flooded       LPS   days hr:min    10^6 ltr    Meters
  --------------------------------------------------------------------------
  WS02006242              0.01     22.05      0  02:18       0.000     0.000
  WS02006243              0.01      0.29      0  01:55       0.000     0.000
  WS02006248              0.02     25.59      0  01:55       0.001     0.000
  WS02006249              1.00     97.85      0  01:48       0.230     0.000
  WS02006252              0.01    245.63      0  00:00       0.000     0.000
  WS02006256              1.31    293.19      0  00:00       0.465     0.000
  YS02001580              0.01    174.22      0  01:37       0.001     0.000
  YS02001583              0.01    182.08      0  01:37       0.001     0.000
  YS02001586              0.30    177.52      0  01:37       0.075     0.000
  YS02001590              0.01      1.75      0  01:37       0.000     0.000
  YS02001600              0.01      6.51      0  01:37       0.000     0.000
  YS02001601              0.50    741.42      0  01:41       0.749     0.000
  YS02001602              0.38     62.06      0  01:51       0.076     0.000
  YS02001605              0.01     14.12      0  01:37       0.000     0.000
  YS02001607              0.01    231.66      0  01:37       0.001     0.000
  YS02001610              0.32    268.03      0  01:38       0.208     0.000
  YS02001613              0.01    265.60      0  01:37       0.001     0.000
  YS02001616              0.01     19.18      0  01:37       0.000     0.000
  YS02001619              0.01      7.65      0  01:37       0.000     0.000
  YS02001622              0.01      1.15      0  01:55       0.000     0.000
  YS02001625              0.28    726.42      0  01:42       0.328     0.000
  YS02001629              0.03    104.45      0  01:37       0.001     0.000
  YS02001641              0.01      0.85      0  01:55       0.000     0.000
  YS02001644              0.01     38.72      0  01:41       0.000     0.000
  YS02001647              0.01      1.06      0  01:55       0.000     0.000
  YS02001655              0.01     27.52      0  01:41       0.000     0.000
  YS02001658              0.01    168.26      0  01:41       0.000     0.000
  YS02001770              0.01     64.38      0  01:39       0.000     0.000
  YS02001774              0.01      4.66      0  01:41       0.000     0.000
  YS02001779              0.01    332.00      0  01:39       0.005     0.000
  YS02001882              0.01      5.68      0  01:38       0.000     0.000
  YS02001890              0.05    211.59      0  01:38       0.006     0.000
  YS02001895              0.01     45.65      0  01:38       0.000     0.000
  YS02001898              0.01    232.44      0  01:38       0.001     0.000
  YS02001901              0.01     36.56      0  01:38       0.000     0.000
  YS02001907              0.23   1104.49      0  01:40       0.418     0.000
  YS02001918              0.01    252.73      0  01:39       0.004     0.000
  YS02001920              0.01     94.40      0  01:39       0.000     0.000
  YS02001923              0.01    207.01      0  01:39       0.001     0.000
  YS02001926              0.01    157.99      0  01:39       0.001     0.000
  YS02001929              0.01    628.06      0  01:39       0.002     0.000
  YS02163301              0.01      1.33      0  01:55       0.000     0.000
  YS02163601              0.01      0.53      0  01:55       0.000     0.000
  YS02164001              0.01      2.31      0  01:55       0.000     0.000
  
  
  **********************
  Storage Volume Summary
  **********************
  
  ------------------------------------------------------------------------------------------------
                         Average    Avg   Evap  Exfil     Maximum    Max    Time of Max    Maximum
                          Volume   Pcnt   Pcnt   Pcnt      Volume   Pcnt     Occurrence    Outflow
  Storage Unit           1000 m³   Full   Loss   Loss     1000 m³   Full    days hr:min        LPS
  ------------------------------------------------------------------------------------------------
  CC-storage               2.467   38.5    0.0    0.0       4.021   62.7       0  02:07    1783.53
  JK-storage               0.153   52.6    0.0    0.0       0.213   73.1       0  01:40    2300.00
  
  
  ***********************
  Outfall Loading Summary
  ***********************
  
  -----------------------------------------------------------
                         Flow       Avg       Max       Total
                         Freq      Flow      Flow      Volume
  Outfall Node           Pcnt       LPS       LPS    10^6 ltr
  -----------------------------------------------------------
  CC-1                  21.96    683.00    683.00       3.625
  CC-2                  13.10    683.00    683.00       1.855
  JK-1                   9.05   1000.00   1000.00       1.896
  JK-2                   0.30   1000.00   1000.00       0.134
  WSC                   99.96    261.40    552.32       5.489
  -----------------------------------------------------------
  System                28.87   3627.40   3366.23      13.000
  
  
  ********************
  Link Flow Summary
  ********************
  
  -----------------------------------------------------------------------------
                                 Maximum  Time of Max   Maximum    Max/    Max/
                                  |Flow|   Occurrence   |Veloc|    Full    Full
  Link                 Type          LPS  days hr:min     m/sec    Flow   Depth
  -----------------------------------------------------------------------------
  1                    CONDUIT    552.32     0  02:45      2.82    0.19    0.30
  WS02003060WS02003069 CONDUIT    551.47     0  02:43      1.64    0.22    0.34
  WS02003066WSF200     CONDUIT    534.98     0  02:43      2.85    0.09    0.22
  WS02003067WS02003066 CONDUIT    534.92     0  02:43      1.20    0.17    0.42
  WS02003069WS02003072 CONDUIT    551.33     0  02:44      1.37    0.27    0.39
  WS02003072WS02003073 CONDUIT    550.98     0  02:44      1.43    1.19    0.37
  WS02004401WS02004402 CONDUIT    537.83     0  02:37      0.98    0.65    0.89
  WS02004402WS02004403 CONDUIT    538.37     0  02:37      0.97    0.77    0.91
  WS02004403WS02004404 CONDUIT    554.19     0  02:41      0.92    0.40    0.96
  WS02004404WS02004405 CONDUIT    598.01     0  02:06      1.08    5.86    0.98
  WS02004405WS02004406 CONDUIT    541.54     0  02:40      0.99    1.07    0.96
  WS02004406WS02004407 CONDUIT    537.90     0  02:41      1.04    0.24    0.63
  WS02004407WS02004409 CONDUIT    537.46     0  02:41      1.56    0.19    0.48
  WS02004409WS02004410 CONDUIT    536.75     0  02:41      1.03    0.69    0.67
  WS02004410WS02004411 CONDUIT    535.99     0  02:42      0.95    0.73    0.68
  WS02004411WS02004412 CONDUIT    535.65     0  02:42      0.92    0.76    0.69
  WS02004412WS02004413 CONDUIT    535.34     0  02:42      0.82    0.36    0.78
  WS02004413WS02003067 CONDUIT    534.88     0  02:42      1.11    0.23    0.59
  WS02006109WS02006110 CONDUIT    570.26     0  01:49      1.13    1.10    1.00
  WS02006110WS02006113 CONDUIT    576.79     0  02:30      1.39    0.52    0.79
  WS02006111WS02006112 CONDUIT    544.34     0  02:03      1.81    0.26    0.67
  WS02006112WS02006115 CONDUIT    557.01     0  03:25      0.86    0.33    0.88
  WS02006113WS02006111 CONDUIT    562.59     0  03:35      2.47    0.67    0.46
  WS02006115WS02006116 CONDUIT    539.71     0  03:25      1.05    0.69    0.78
  WS02006116WS02004401 CONDUIT    538.61     0  02:48      0.98    0.74    0.86
  WS02006228WS02006109 CONDUIT    567.21     0  01:49      1.13    2.48    1.00
  WS02006229WS02006228 CONDUIT    564.96     0  01:49      1.14    1.87    1.00
  WS02006230WS02006229 CONDUIT    564.36     0  01:49      1.47   12.56    1.00
  WS02006231WS02006230 CONDUIT    585.20     0  02:07      1.61    8.88    1.00
  WS02006232WS02006231 CONDUIT    594.23     0  02:06      1.55    1.25    1.00
  WS02006234WS02006232 CONDUIT    592.00     0  02:06      1.54    1.20    1.00
  WS02006235WS02006234 CONDUIT    580.85     0  02:06      1.51    6.13    1.00
  WS02006238WS02006235 CONDUIT    426.64     0  02:15      1.45    0.95    1.00
  WS02006239WS02006238 CONDUIT    426.40     0  02:15      1.19    1.36    1.00
  WS02006240WS02006239 CONDUIT    423.67     0  02:15      1.29    1.33    1.00
  WS02006242WS02006240 CONDUIT    419.93     0  02:10      1.16    1.67    1.00
  WS02006243WS02006242 CONDUIT    420.14     0  02:10      1.42    0.90    1.00
  WS02006245WS02006243 CONDUIT    420.45     0  02:10      1.45    1.24    1.00
  WS02006247WS02006245 CONDUIT    420.71     0  02:10      1.43    3.34    1.00
  WS02006248WS02006247 CONDUIT    420.70     0  02:15      1.46    0.92    1.00
  WS02006249WS02006248 CONDUIT    420.32     0  02:15      1.38    2.30    1.00
  WS02006251WS02006249 CONDUIT    459.02     0  00:00      2.00    1.32    1.00
  WS02006252WS02006251 CONDUIT    408.33     0  02:58     24.61    1.50    1.00
  WS02006256WS02006235 CONDUIT    288.91     0  00:00      4.23    3.06    1.00
  WSF200WS02003060     CONDUIT    535.13     0  02:43      2.06    0.12    0.28
  YS02001580YS02001583 CONDUIT    246.66     0  01:37      1.03    0.96    1.00
  YS02001583YS02001586 CONDUIT    262.64     0  01:37      1.17    0.40    1.00
  YS02001586YS02001590 CONDUIT    320.67     0  01:55      1.35    0.56    1.00
  YS02001590YS02001593 CONDUIT    318.21     0  01:48      1.13    2.00    1.00
  YS02001593YS02001596 CONDUIT    318.07     0  01:50      1.72    0.50    1.00
  YS02001596YS02001600 CONDUIT    318.23     0  01:51      1.19    0.62    1.00
  YS02001600YS02001601 CONDUIT    318.51     0  01:51      1.13    0.55    1.00
  YS02001601YS02001602 CONDUIT    595.44     0  01:37      2.11    2.15    1.00
  YS02001602YS02001605 CONDUIT    595.29     0  01:37      2.11   12.60    1.00
  YS02001605YS02001607 CONDUIT    595.13     0  01:37      2.10    3.26    1.00
  YS02001607YS02001610 CONDUIT    564.85     0  01:37      0.77    0.54    1.00
  YS02001610YS02001613 CONDUIT    532.01     0  01:37      0.72    0.61    1.00
  YS02001613YS02001616 CONDUIT    488.67     0  01:37      0.70    0.42    1.00
  YS02001616YS02001619 CONDUIT    483.25     0  02:06      0.66    0.84    1.00
  YS02001619YS02001622 CONDUIT    843.15     0  01:37      1.43    1.24    1.00
  YS02001622YS02001625 CONDUIT    839.67     0  02:00      1.07    0.45    1.00
  YS02001625YS02001629 CONDUIT    840.21     0  02:00      1.07    0.40    1.00
  YS02001629YS02163301 CONDUIT    843.79     0  02:00      1.07    1.04    1.00
  YS02001633YS02163601 CONDUIT   1343.94     0  01:38      1.71    1.41    1.00
  YS02001641YS02001644 CONDUIT   1342.35     0  01:38      1.71    4.34    1.00
  YS02001644YS02001647 CONDUIT   1849.72     0  01:38      2.36    1.09    1.00
  YS02001647YS02001649 CONDUIT   1857.64     0  01:38      2.37    0.98    1.00
  YS02001649YS02001757 CONDUIT   2175.63     0  01:39      2.77    1.32    1.00
  YS02001652YS02001649 CONDUIT    627.67     0  01:42      0.97    0.31    1.00
  YS02001655YS02001652 CONDUIT    627.42     0  01:42      1.77    0.30    1.00
  YS02001658YS02001655 CONDUIT    776.36     0  01:39      2.14    0.33    1.00
  YS02001661YS02001658 CONDUIT    648.49     0  01:40      2.44    0.25    0.89
  YS02001664YS02001661 CONDUIT    533.34     0  01:40      2.37    0.17    0.56
  YS02001745YS02001748 CONDUIT    584.00     0  01:43      2.33    0.22    0.70
  YS02001748YS02001751 CONDUIT    538.04     0  01:43      1.94    0.27    1.00
  YS02001751YS02001754 CONDUIT    449.02     0  01:41      1.80    0.22    1.00
  YS02001754YS02001757 CONDUIT    449.34     0  01:41      0.74    0.18    1.00
  YS02001757CaochengTiaoxuchi CONDUIT   3324.39     0  01:42      4.37    1.44    1.00
  YS02001759YS02001757 CONDUIT   1267.77     0  01:40      1.61    0.90    1.00
  YS02001762YS02001759 CONDUIT    768.19     0  01:40      0.98    0.89    1.00
  YS02001765YS02001762 CONDUIT    760.13     0  01:40      0.97    0.71    1.00
  YS02001767YS02001765 CONDUIT    751.02     0  01:40      0.96    0.94    1.00
  YS02001770YS02001767 CONDUIT    743.54     0  01:40      1.01    2.95    1.00
  YS02001774YS02001770 CONDUIT    389.10     0  01:39      0.50    0.25    1.00
  YS02001779YS02001774 CONDUIT    359.67     0  01:39      0.46    0.18    1.00
  YS02001783YS02001784 CONDUIT   1152.55     0  01:39      2.29    1.59    1.00
  YS02001784YS02001785 CONDUIT   1154.24     0  01:39      2.30    2.69    1.00
  YS02001786YS02001788 CONDUIT   1155.54     0  01:39      2.49    2.23    0.89
  YS02001788YS02001790 CONDUIT   1161.46     0  01:43      2.70    0.86    0.84
  YS02001790YS02001791 CONDUIT   1285.08     0  01:39      3.44    1.40    0.70
  YS02001791YS02001793 CONDUIT   1234.72     0  01:48      6.45    0.53    0.45
  YS02001793JiankangQianchi CONDUIT   1212.95     0  01:48      2.35    0.10    0.65
  YS02001882YS02001884 CONDUIT     65.17     0  01:37      0.14    0.07    1.00
  YS02001884YS02001887 CONDUIT    120.09     0  01:37      0.17    0.16    1.00
  YS02001887YS02001890 CONDUIT    591.54     0  01:38      0.75    1.01    1.00
  YS02001890YS02001895 CONDUIT    598.25     0  01:38      0.76    0.28    1.00
  YS02001895YS02001898 CONDUIT    602.69     0  01:38      0.77    1.05    1.00
  YS02001898YS02001901 CONDUIT    608.00     0  01:38      0.77    0.39    1.00
  YS02001901YS02001904 CONDUIT    609.70     0  01:38      0.78    0.95    1.00
  YS02001904YS02001907 CONDUIT    610.32     0  01:38      0.78    0.21    1.00
  YS02001907YS02006553 CONDUIT    803.40     0  01:55      0.89    0.95    1.00
  YS02001910YS02001907 CONDUIT   1033.62     0  01:40      1.32    0.58    1.00
  YS02001915YS02001910 CONDUIT   1032.95     0  01:40      1.32    0.51    1.00
  YS02001918YS02001915 CONDUIT    722.05     0  01:38      0.95    0.40    1.00
  YS02001920YS02001918 CONDUIT    597.10     0  01:38      0.76    0.58    1.00
  YS02001923YS02001920 CONDUIT    602.54     0  01:38      0.89    0.27    1.00
  YS02001926YS02001923 CONDUIT    846.29     0  01:39      1.31    1.21    1.00
  YS02001929YS02001926 CONDUIT    695.69     0  01:39      1.20    0.33    1.00
  YS02006553YS02006556 CONDUIT    805.34     0  01:55      1.03    0.69    1.00
  YS02006556YS02006558 CONDUIT    808.56     0  01:55      1.03    0.64    1.00
  YS02006558YS02006561 CONDUIT   1173.46     0  01:38      4.15    2.59    1.00
  YS02006561YS02001783 CONDUIT   1152.33     0  01:40      2.29    0.60    1.00
  YS02163301YS02001633 CONDUIT    843.51     0  02:00      1.07    0.79    1.00
  YS02163601YS02164001 CONDUIT   1343.01     0  01:38      1.71    1.19    1.00
  YS02164001YS02001641 CONDUIT   1344.02     0  01:38      1.71    1.84    1.00
  CC-R1                PUMP       683.00     0  00:00              1.00
  CC-R2                PUMP       683.00     0  00:00              1.00
  CC-S1                PUMP       200.00     0  00:00              1.00
  CC-S2                PUMP       200.00     0  00:00              1.00
  JK-R1                PUMP      1000.00     0  00:00              1.00
  JK-R2                PUMP      1000.00     0  00:00              1.00
  JK-S                 PUMP       300.00     0  00:00              1.00
  
  
  ***************************
  Flow Classification Summary
  ***************************
  
  -------------------------------------------------------------------------------------
                      Adjusted    ---------- Fraction of Time in Flow Class ---------- 
                       /Actual         Up    Down  Sub   Sup   Up    Down  Norm  Inlet 
  Conduit               Length    Dry  Dry   Dry   Crit  Crit  Crit  Crit  Ltd   Ctrl  
  -------------------------------------------------------------------------------------
  1                       1.00   0.00  0.00  0.00  0.00  1.00  0.00  0.00  0.49  0.00
  WS02003060WS02003069    1.00   0.00  0.00  0.00  0.98  0.02  0.00  0.00  0.69  0.00
  WS02003066WSF200        1.00   0.13  0.00  0.00  0.00  0.87  0.00  0.00  0.76  0.00
  WS02003067WS02003066    1.00   0.10  0.02  0.00  0.88  0.00  0.00  0.00  0.00  0.00
  WS02003069WS02003072    1.00   0.00  0.00  0.00  0.99  0.01  0.00  0.00  0.73  0.00
  WS02003072WS02003073    1.00   0.00  0.00  0.00  0.00  0.00  0.00  1.00  0.00  0.00
  WS02004401WS02004402    1.00   0.02  0.00  0.00  0.98  0.00  0.00  0.00  0.00  0.00
  WS02004402WS02004403    1.00   0.02  0.00  0.00  0.97  0.00  0.00  0.00  0.00  0.00
  WS02004403WS02004404    1.00   0.00  0.03  0.00  0.97  0.00  0.00  0.00  0.00  0.00
  WS02004404WS02004405    1.00   0.00  0.00  0.00  1.00  0.00  0.00  0.00  0.01  0.00
  WS02004405WS02004406    1.00   0.00  0.00  0.00  1.00  0.00  0.00  0.00  0.00  0.00
  WS02004406WS02004407    1.00   0.00  0.05  0.00  0.95  0.00  0.00  0.00  0.00  0.00
  WS02004407WS02004409    1.00   0.05  0.00  0.00  0.94  0.01  0.00  0.00  0.94  0.00
  WS02004409WS02004410    1.00   0.05  0.00  0.00  0.95  0.00  0.00  0.00  0.03  0.00
  WS02004410WS02004411    1.00   0.05  0.00  0.00  0.95  0.00  0.00  0.00  0.01  0.00
  WS02004411WS02004412    1.00   0.05  0.00  0.00  0.95  0.00  0.00  0.00  0.00  0.00
  WS02004412WS02004413    1.00   0.05  0.00  0.00  0.94  0.00  0.00  0.00  0.01  0.00
  WS02004413WS02003067    1.00   0.06  0.04  0.00  0.00  0.00  0.90  0.00  0.00  0.00
  WS02006109WS02006110    1.00   0.00  0.01  0.00  0.98  0.00  0.01  0.00  0.00  0.00
  WS02006110WS02006113    1.00   0.01  0.01  0.00  0.98  0.00  0.00  0.00  0.00  0.00
  WS02006111WS02006112    1.00   0.02  0.00  0.00  0.98  0.00  0.00  0.00  0.98  0.00
  WS02006112WS02006115    1.00   0.02  0.00  0.00  0.97  0.00  0.00  0.00  0.00  0.00
  WS02006113WS02006111    1.00   0.02  0.00  0.00  0.00  0.98  0.00  0.00  0.14  0.00
  WS02006115WS02006116    1.00   0.02  0.00  0.00  0.97  0.00  0.00  0.01  0.00  0.00
  WS02006116WS02004401    1.00   0.02  0.00  0.00  0.98  0.00  0.00  0.00  0.00  0.00
  WS02006228WS02006109    1.00   0.00  0.00  0.00  1.00  0.00  0.00  0.00  0.00  0.00
  WS02006229WS02006228    1.00   0.00  0.00  0.00  0.99  0.00  0.00  0.01  0.00  0.00
  WS02006230WS02006229    1.00   0.00  0.00  0.00  0.99  0.00  0.00  0.01  0.01  0.00
  WS02006231WS02006230    1.00   0.00  0.00  0.00  0.26  0.00  0.73  0.00  0.00  0.00
  WS02006232WS02006231    1.00   0.00  0.00  0.00  0.99  0.00  0.01  0.00  0.00  0.00
  WS02006234WS02006232    1.00   0.00  0.00  0.00  1.00  0.00  0.00  0.00  0.09  0.00
  WS02006235WS02006234    1.00   0.00  0.00  0.00  0.86  0.00  0.14  0.00  0.00  0.00
  WS02006238WS02006235    1.00   0.00  0.00  0.00  1.00  0.00  0.00  0.00  0.00  0.00
  WS02006239WS02006238    1.00   0.00  0.00  0.00  1.00  0.00  0.00  0.00  0.20  0.00
  WS02006240WS02006239    1.00   0.00  0.00  0.00  0.64  0.00  0.00  0.36  0.03  0.00
  WS02006242WS02006240    1.00   0.00  0.00  0.00  0.98  0.00  0.01  0.00  0.00  0.00
  WS02006243WS02006242    1.00   0.00  0.00  0.00  0.98  0.00  0.00  0.01  0.52  0.00
  WS02006245WS02006243    1.00   0.00  0.00  0.00  0.81  0.00  0.00  0.19  0.01  0.00
  WS02006247WS02006245    1.00   0.00  0.00  0.00  0.97  0.00  0.00  0.03  0.00  0.00
  WS02006248WS02006247    1.00   0.00  0.00  0.00  0.98  0.00  0.00  0.02  0.42  0.00
  WS02006249WS02006248    1.00   0.00  0.00  0.00  0.49  0.00  0.51  0.00  0.00  0.00
  WS02006251WS02006249    1.00   0.00  0.00  0.00  0.99  0.01  0.00  0.00  0.52  0.00
  WS02006252WS02006251    1.00   0.06  0.44  0.00  0.13  0.00  0.37  0.00  0.00  0.00
  WS02006256WS02006235    1.00   0.00  0.00  0.00  0.99  0.01  0.00  0.00  0.00  0.00
  WSF200WS02003060        1.00   0.00  0.13  0.00  0.34  0.54  0.00  0.00  0.49  0.00
  YS02001580YS02001583    1.00   0.20  0.63  0.00  0.17  0.00  0.00  0.00  0.72  0.00
  YS02001583YS02001586    1.00   0.45  0.33  0.00  0.23  0.00  0.00  0.00  0.72  0.00
  YS02001586YS02001590    1.00   0.13  0.00  0.00  0.38  0.04  0.00  0.45  0.34  0.00
  YS02001590YS02001593    1.00   0.13  0.01  0.00  0.09  0.00  0.77  0.00  0.00  0.00
  YS02001593YS02001596    1.00   0.14  0.00  0.00  0.10  0.01  0.00  0.75  0.02  0.00
  YS02001596YS02001600    1.00   0.14  0.00  0.00  0.17  0.02  0.00  0.67  0.06  0.00
  YS02001600YS02001601    1.00   0.13  0.01  0.00  0.86  0.00  0.00  0.00  0.63  0.00
  YS02001601YS02001602    1.00   0.13  0.01  0.00  0.86  0.00  0.00  0.00  0.00  0.00
  YS02001602YS02001605    1.00   0.14  0.00  0.00  0.86  0.00  0.00  0.00  0.00  0.00
  YS02001605YS02001607    1.00   0.14  0.00  0.00  0.86  0.00  0.00  0.00  0.00  0.00
  YS02001607YS02001610    1.00   0.13  0.01  0.00  0.86  0.00  0.00  0.00  0.02  0.00
  YS02001610YS02001613    1.00   0.13  0.00  0.00  0.87  0.00  0.00  0.00  0.01  0.00
  YS02001613YS02001616    1.00   0.13  0.00  0.00  0.87  0.00  0.00  0.00  0.01  0.00
  YS02001616YS02001619    1.00   0.13  0.00  0.00  0.87  0.00  0.00  0.00  0.00  0.00
  YS02001619YS02001622    1.00   0.13  0.00  0.00  0.87  0.00  0.00  0.00  0.31  0.00
  YS02001622YS02001625    1.00   0.13  0.00  0.00  0.87  0.00  0.00  0.00  0.05  0.00
  YS02001625YS02001629    1.00   0.13  0.05  0.00  0.13  0.00  0.69  0.00  0.00  0.00
  YS02001629YS02163301    1.00   0.16  0.01  0.00  0.83  0.00  0.00  0.00  0.00  0.00
  YS02001633YS02163601    1.00   0.00  0.01  0.00  0.99  0.00  0.00  0.00  0.15  0.00
  YS02001641YS02001644    1.00   0.00  0.01  0.00  0.99  0.00  0.00  0.00  0.00  0.00
  YS02001644YS02001647    1.00   0.00  0.18  0.00  0.82  0.00  0.00  0.00  0.00  0.00
  YS02001647YS02001649    1.00   0.00  0.18  0.00  0.54  0.28  0.00  0.00  0.58  0.00
  YS02001649YS02001757    1.00   0.00  0.00  0.00  0.90  0.10  0.00  0.00  0.44  0.00
  YS02001652YS02001649    1.00   0.00  0.00  0.00  0.96  0.04  0.00  0.00  0.74  0.00
  YS02001655YS02001652    1.00   0.00  0.00  0.00  0.16  0.02  0.00  0.82  0.08  0.00
  YS02001658YS02001655    1.00   0.00  0.15  0.00  0.64  0.22  0.00  0.00  0.73  0.00
  YS02001661YS02001658    1.00   0.15  0.00  0.00  0.48  0.38  0.00  0.00  0.76  0.00
  YS02001664YS02001661    1.00   0.13  0.00  0.00  0.77  0.11  0.00  0.00  0.86  0.00
  YS02001745YS02001748    1.00   0.00  0.00  0.00  0.06  0.01  0.00  0.93  0.06  0.00
  YS02001748YS02001751    1.00   0.00  0.00  0.00  0.81  0.19  0.00  0.00  0.80  0.00
  YS02001751YS02001754    1.00   0.00  0.00  0.00  0.14  0.00  0.00  0.85  0.05  0.00
  YS02001754YS02001757    1.00   0.00  0.00  0.00  1.00  0.00  0.00  0.00  0.84  0.00
  YS02001757CaochengTiaoxuchi    1.00   0.00  0.00  0.00  0.98  0.02  0.00  0.00  0.64  0.00
  YS02001759YS02001757    1.00   0.00  0.00  0.00  1.00  0.00  0.00  0.00  0.55  0.00
  YS02001762YS02001759    1.00   0.00  0.00  0.00  1.00  0.00  0.00  0.00  0.06  0.00
  YS02001765YS02001762    1.00   0.00  0.00  0.00  1.00  0.00  0.00  0.00  0.70  0.00
  YS02001767YS02001765    1.00   0.00  0.00  0.00  1.00  0.00  0.00  0.00  0.00  0.00
  YS02001770YS02001767    1.00   0.00  0.00  0.00  1.00  0.00  0.00  0.00  0.00  0.00
  YS02001774YS02001770    1.00   0.00  0.14  0.00  0.68  0.00  0.18  0.00  0.03  0.00
  YS02001779YS02001774    1.00   0.00  0.00  0.00  1.00  0.00  0.00  0.00  0.81  0.00
  YS02001783YS02001784    1.00   0.00  0.18  0.00  0.82  0.00  0.00  0.00  0.57  0.00
  YS02001784YS02001785    1.00   0.00  0.00  0.00  1.00  0.00  0.00  0.00  0.17  0.00
  YS02001786YS02001788    1.00   0.00  0.00  0.00  0.79  0.21  0.00  0.00  0.00  0.00
  YS02001788YS02001790    1.00   0.00  0.00  0.00  0.20  0.80  0.00  0.00  0.85  0.00
  YS02001790YS02001791    1.00   0.00  0.00  0.00  0.01  0.99  0.00  0.00  0.16  0.00
  YS02001791YS02001793    1.00   0.00  0.00  0.00  0.00  1.00  0.00  0.00  0.01  0.00
  YS02001793JiankangQianchi    1.00   0.00  0.00  0.00  1.00  0.00  0.00  0.00  0.96  0.00
  YS02001882YS02001884    1.00   0.16  0.01  0.00  0.83  0.00  0.00  0.00  0.00  0.00
  YS02001884YS02001887    1.00   0.06  0.05  0.00  0.89  0.00  0.00  0.00  0.00  0.00
  YS02001887YS02001890    1.00   0.00  0.00  0.00  0.97  0.00  0.03  0.00  0.00  0.00
  YS02001890YS02001895    1.00   0.00  0.17  0.00  0.83  0.00  0.00  0.00  0.00  0.00
  YS02001895YS02001898    1.00   0.17  0.00  0.00  0.82  0.00  0.01  0.00  0.00  0.00
  YS02001898YS02001901    1.00   0.17  0.00  0.00  0.83  0.00  0.00  0.00  0.01  0.00
  YS02001901YS02001904    1.00   0.17  0.00  0.00  0.83  0.00  0.00  0.00  0.00  0.00
  YS02001904YS02001907    1.00   0.00  0.17  0.00  0.83  0.00  0.00  0.00  0.00  0.00
  YS02001907YS02006553    1.00   0.00  0.02  0.00  0.98  0.00  0.00  0.00  0.00  0.00
  YS02001910YS02001907    1.00   0.00  0.00  0.00  0.97  0.00  0.00  0.03  0.12  0.00
  YS02001915YS02001910    1.00   0.00  0.00  0.00  0.96  0.04  0.00  0.00  0.16  0.00
  YS02001918YS02001915    1.00   0.00  0.01  0.00  0.98  0.02  0.00  0.00  0.77  0.00
  YS02001920YS02001918    1.00   0.00  0.01  0.00  0.99  0.00  0.00  0.00  0.00  0.00
  YS02001923YS02001920    1.00   0.00  0.00  0.00  1.00  0.00  0.00  0.00  0.94  0.00
  YS02001926YS02001923    1.00   0.00  0.07  0.00  0.05  0.00  0.88  0.00  0.00  0.00
  YS02001929YS02001926    1.00   0.00  0.13  0.00  0.87  0.00  0.00  0.00  0.83  0.00
  YS02006553YS02006556    1.00   0.01  0.00  0.00  0.99  0.00  0.00  0.00  0.03  0.00
  YS02006556YS02006558    1.00   0.00  0.00  0.00  1.00  0.00  0.00  0.00  0.00  0.00
  YS02006558YS02006561    1.00   0.18  0.00  0.00  0.04  0.78  0.00  0.00  0.20  0.00
  YS02006561YS02001783    1.00   0.18  0.00  0.00  0.07  0.75  0.00  0.00  0.71  0.00
  YS02163301YS02001633    1.00   0.00  0.16  0.00  0.84  0.00  0.00  0.00  0.00  0.00
  YS02163601YS02164001    1.00   0.00  0.08  0.00  0.92  0.00  0.00  0.00  0.00  0.00
  YS02164001YS02001641    1.00   0.01  0.07  0.00  0.92  0.00  0.00  0.00  0.06  0.00
  
  
  *************************
  Conduit Surcharge Summary
  *************************
  
  ----------------------------------------------------------------------------
                                                           Hours        Hours 
                         --------- Hours Full --------   Above Full   Capacity
  Conduit                Both Ends  Upstream  Dnstream   Normal Flow   Limited
  ----------------------------------------------------------------------------
  WS02003072WS02003073        0.01      0.01      0.01      1.59         0.01
  WS02004403WS02004404        0.01      0.01      0.01      0.01         0.01
  WS02004404WS02004405        0.01      0.01      0.01      3.54         0.01
  WS02004405WS02004406        0.01      0.01      0.01      0.63         0.01
  WS02006109WS02006110        0.66      0.66      2.00      0.89         0.01
  WS02006110WS02006113        0.01      0.01      1.99      0.01         0.01
  WS02006111WS02006112        0.01      0.01      2.25      0.01         0.01
  WS02006112WS02006115        0.01      0.01      1.04      0.01         0.01
  WS02006228WS02006109        1.98      2.00      1.98      2.55         1.98
  WS02006229WS02006228        1.97      1.98      1.97      2.20         1.96
  WS02006230WS02006229        2.07      2.15      2.07      4.06         2.06
  WS02006231WS02006230        0.68      0.68      1.03      3.69         0.01
  WS02006232WS02006231        0.93      0.93      2.00      1.05         0.01
  WS02006234WS02006232        1.89      1.89      2.00      1.02         1.01
  WS02006235WS02006234        1.54      1.55      1.90      3.53         0.03
  WS02006238WS02006235        1.93      1.93      2.00      0.01         0.01
  WS02006239WS02006238        1.98      1.99      1.98      2.11         1.73
  WS02006240WS02006239        1.94      1.98      1.95      2.12         1.63
  WS02006242WS02006240        1.98      1.98      2.04      2.25         0.01
  WS02006243WS02006242        1.97      1.97      2.01      0.01         0.08
  WS02006245WS02006243        1.97      1.97      1.97      1.40         1.21
  WS02006247WS02006245        1.97      1.97      1.97      3.31         1.95
  WS02006248WS02006247        1.96      1.96      1.97      0.01         0.09
  WS02006249WS02006248        1.96      1.96      1.96      3.27         0.01
  WS02006251WS02006249        1.95      1.95      1.96      2.21         1.83
  WS02006252WS02006251        2.28      2.28      2.29      2.28         0.01
  WS02006256WS02006235        3.54      3.60      6.58      1.32         0.01
  YS02001580YS02001583        0.41      0.41      0.47      0.01         0.01
  YS02001583YS02001586        0.42      0.42      0.57      0.01         0.01
  YS02001586YS02001590        0.57      0.57      0.63      0.01         0.01
  YS02001590YS02001593        0.63      0.63      0.64      0.69         0.01
  YS02001593YS02001596        0.64      0.64      0.72      0.01         0.01
  YS02001596YS02001600        0.74      0.74      0.83      0.01         0.01
  YS02001600YS02001601        0.89      0.89      1.19      0.01         0.01
  YS02001601YS02001602        1.06      1.06      1.24      0.85         0.01
  YS02001602YS02001605        1.01      1.01      1.06      1.99         0.01
  YS02001605YS02001607        0.97      1.01      0.97      1.13         0.97
  YS02001607YS02001610        0.59      0.59      0.60      0.01         0.01
  YS02001610YS02001613        0.58      0.58      0.60      0.01         0.01
  YS02001613YS02001616        0.54      0.54      0.58      0.01         0.01
  YS02001616YS02001619        0.54      0.54      0.54      0.01         0.01
  YS02001619YS02001622        0.53      0.54      0.53      0.67         0.50
  YS02001622YS02001625        0.53      0.53      0.68      0.01         0.01
  YS02001625YS02001629        0.47      0.47      0.68      0.01         0.01
  YS02001629YS02163301        0.67      0.67      0.68      0.20         0.20
  YS02001633YS02163601        0.70      0.70      0.72      0.42         0.42
  YS02001641YS02001644        0.61      0.63      0.61      1.30         0.61
  YS02001644YS02001647        0.43      0.43      0.61      0.03         0.01
  YS02001647YS02001649        0.43      0.43      0.53      0.01         0.01
  YS02001649YS02001757        0.53      0.53      0.58      0.30         0.26
  YS02001652YS02001649        0.37      0.37      0.53      0.01         0.01
  YS02001655YS02001652        0.16      0.16      0.34      0.01         0.01
  YS02001658YS02001655        0.02      0.02      0.16      0.01         0.01
  YS02001661YS02001658        0.01      0.01      0.02      0.01         0.01
  YS02001748YS02001751        0.01      0.01      0.05      0.01         0.01
  YS02001751YS02001754        0.05      0.05      0.19      0.01         0.01
  YS02001754YS02001757        0.26      0.26      0.58      0.01         0.01
  YS02001757CaochengTiaoxuchi        0.49      0.58      1.95      0.29         0.19
  YS02001759YS02001757        0.48      0.48      0.58      0.01         0.01
  YS02001762YS02001759        0.45      0.45      0.48      0.01         0.02
  YS02001765YS02001762        0.40      0.40      0.45      0.01         0.01
  YS02001767YS02001765        0.37      0.37      0.40      0.01         0.02
  YS02001770YS02001767        0.37      0.37      0.37      0.41         0.28
  YS02001774YS02001770        0.35      0.35      0.43      0.01         0.01
  YS02001779YS02001774        0.21      0.21      0.43      0.01         0.01
  YS02001783YS02001784        0.40      0.42      0.40      0.53         0.39
  YS02001784YS02001785        0.30      0.40      0.30      0.71         0.30
  YS02001786YS02001788        0.01      0.30      0.01      0.60         0.01
  YS02001790YS02001791        0.01      0.01      0.01      0.38         0.01
  YS02001793JiankangQianchi        0.01      0.01      7.41      0.01         0.01
  YS02001882YS02001884        0.37      0.37      0.38      0.01         0.01
  YS02001884YS02001887        0.40      0.40      0.41      0.01         0.01
  YS02001887YS02001890        0.42      0.42      0.43      0.01         0.01
  YS02001890YS02001895        0.36      0.36      0.45      0.01         0.01
  YS02001895YS02001898        0.35      0.35      0.36      0.01         0.01
  YS02001898YS02001901        0.36      0.36      0.40      0.01         0.01
  YS02001901YS02001904        0.39      0.39      0.40      0.01         0.01
  YS02001904YS02001907        0.39      0.39      0.59      0.01         0.01
  YS02001907YS02006553        0.72      0.72      0.78      0.01         0.01
  YS02001910YS02001907        0.44      0.44      0.58      0.01         0.01
  YS02001915YS02001910        0.37      0.37      0.44      0.01         0.01
  YS02001918YS02001915        0.29      0.29      0.37      0.01         0.01
  YS02001920YS02001918        0.29      0.29      0.30      0.01         0.01
  YS02001923YS02001920        0.25      0.25      0.30      0.01         0.01
  YS02001926YS02001923        0.01      0.01      0.01      0.01         0.01
  YS02001929YS02001926        0.01      0.01      0.01      0.01         0.01
  YS02006553YS02006556        0.51      0.51      0.59      0.01         0.01
  YS02006556YS02006558        0.56      0.56      0.60      0.01         0.01
  YS02006558YS02006561        0.32      0.50      0.32      0.68         0.32
  YS02006561YS02001783        0.25      0.25      0.42      0.01         0.01
  YS02163301YS02001633        0.68      0.68      0.71      0.01         0.01
  YS02163601YS02164001        0.64      0.64      0.72      0.04         0.01
  YS02164001YS02001641        0.63      0.64      0.63      0.72         0.60
  
  
  ***************
  Pumping Summary
  ***************
  
  ---------------------------------------------------------------------------------------------------------
                                                  Min       Avg       Max     Total     Power    % Time Off
                        Percent   Number of      Flow      Flow      Flow    Volume     Usage    Pump Curve
  Pump                 Utilized   Start-Ups       LPS       LPS       LPS  10^6 ltr     Kw-hr    Low   High
  ---------------------------------------------------------------------------------------------------------
  CC-R1                   18.48           9      0.00    683.00    683.00     3.635     66.14    0.0   21.6
  CC-R2                    9.47          12      0.00    683.00    683.00     1.862     33.61    0.0   32.2
  CC-S1                   41.51           9      0.00    200.00    200.00     2.391     14.34    0.0    0.0
  CC-S2                   29.37          12      0.00    200.00    200.00     1.692     10.18    0.0    0.0
  JK-R1                    6.58          12      0.00   1000.00   1000.00     1.895     22.75    0.0    0.0
  JK-R2                    0.46           2      0.00   1000.00   1000.00     0.133      1.14    0.0    0.0
  JK-S                    16.39          31      0.00    300.00    300.00     1.416     18.58    0.0    0.0
  

  Analysis begun on:  Mon Feb 24 09:49:18 2025
  Analysis ended on:  Mon Feb 24 09:49:19 2025
  Total elapsed time: 00:00:01