
  EPA STORM WATER MANAGEMENT MODEL - VERSION 5.2 (Build 5.2.4)
  PYSWMM TOOLKIT API - VERSION v1.0 (2023-11-27)
  ------------------------------------------------------------

  WARNING 04: minimum elevation drop used for Conduit WS02004404WS02004405
  WARNING 03: negative offset ignored for Link YS02001904YS02001907
  
  ****************
  Analysis Options
  ****************
  Flow Units ............... LPS
  Process Models:
    Rainfall/Runoff ........ YES
    RDII ................... NO
    Snowmelt ............... NO
    Groundwater ............ NO
    Flow Routing ........... YES
    Ponding Allowed ........ NO
    Water Quality .......... NO
  Infiltration Method ...... HORTON
  Flow Routing Method ...... DYNWAVE
  Surcharge Method ......... EXTRAN
  Starting Date ............ 08/28/2015 08:00:00
  Ending Date .............. 08/28/2015 16:00:00
  Antecedent Dry Days ...... 8.0
  Report Time Step ......... 00:01:00
  Wet Time Step ............ 00:01:00
  Dry Time Step ............ 00:01:00
  Routing Time Step ........ 30.00 sec
  Variable Time Step ....... YES
  Maximum Trials ........... 8
  Number of Threads ........ 4
  Head Tolerance ........... 0.001500 m
  
  
  **************************        Volume         Depth
  Runoff Quantity Continuity     hectare-m            mm
  **************************     ---------       -------
  Total Precipitation ......         2.598        78.315
  Evaporation Loss .........         0.000         0.000
  Infiltration Loss ........         0.100         3.020
  Surface Runoff ...........         2.465        74.321
  Final Storage ............         0.033         0.994
  Continuity Error (%) .....        -0.025
  
  
  **************************        Volume        Volume
  Flow Routing Continuity        hectare-m      10^6 ltr
  **************************     ---------     ---------
  Dry Weather Inflow .......         0.025         0.251
  Wet Weather Inflow .......         2.465        24.653
  Groundwater Inflow .......         0.000         0.000
  RDII Inflow ..............         0.000         0.000
  External Inflow ..........         0.083         0.834
  External Outflow .........         1.727        17.273
  Flooding Loss ............         0.916         9.160
  Evaporation Loss .........         0.000         0.000
  Exfiltration Loss ........         0.000         0.000
  Initial Stored Volume ....         0.243         2.431
  Final Stored Volume ......         0.182         1.825
  Continuity Error (%) .....        -0.318
  
  
  *************************
  Highest Continuity Errors
  *************************
  Node YS02001583 (-10.90%)
  Node YS02001884 (5.11%)
  Node WS02006256 (-1.17%)
  
  
  ***************************
  Time-Step Critical Elements
  ***************************
  Link WS02006252WS02006251 (44.52%)
  Link WS02004404WS02004405 (13.66%)
  Link WS02006238WS02006235 (11.00%)
  Link YS02001791YS02001793 (7.56%)
  Link WS02003066WSF200 (5.92%)
  
  
  ********************************
  Highest Flow Instability Indexes
  ********************************
  Link WS02006113WS02006111 (43)
  Link WS02006111WS02006112 (24)
  Link WS02006252WS02006251 (19)
  Link WS02006238WS02006235 (17)
  Link YS02001602YS02001605 (14)
  
  
  *********************************
  Most Frequent Nonconverging Nodes
  *********************************
  Node CC-1 (14.96%)
  Node CC-2 (14.96%)
  Node JK-1 (14.96%)
  Node JK-2 (14.96%)
  Node WSC (14.96%)
  
  
  *************************
  Routing Time Step Summary
  *************************
  Minimum Time Step           :     0.02 sec
  Average Time Step           :     2.00 sec
  Maximum Time Step           :     7.04 sec
  % of Time in Steady State   :     0.00
  Average Iterations per Step :     3.29
  % of Steps Not Converging   :    14.96
  Time Step Frequencies       :
     30.000 - 13.228 sec      :     0.00 %
     13.228 -  5.833 sec      :     7.82 %
      5.833 -  2.572 sec      :    19.82 %
      2.572 -  1.134 sec      :    21.93 %
      1.134 -  0.500 sec      :    50.43 %
  
  
  ***************************
  Subcatchment Runoff Summary
  ***************************
  
  ------------------------------------------------------------------------------------------------------------------------------
                            Total      Total      Total      Total     Imperv       Perv      Total       Total     Peak  Runoff
                           Precip      Runon       Evap      Infil     Runoff     Runoff     Runoff      Runoff   Runoff   Coeff
  Subcatchment                 mm         mm         mm         mm         mm         mm         mm    10^6 ltr      LPS
  ------------------------------------------------------------------------------------------------------------------------------
  sub60                     78.32       0.00       0.00       1.84      67.72       7.57      75.29        0.99   618.33   0.961
  sub61                     78.32       0.00       0.00       2.66      63.88      10.66      74.54        1.37   853.79   0.952
  sub62                     78.32       0.00       0.00       1.22      70.77       5.05      75.81        2.08  1199.41   0.968
  sub63                     78.32       0.00       0.00       4.87      54.64      17.85      72.49        1.65   940.61   0.926
  sub64                     78.32       0.00       0.00       2.46      65.37       9.29      74.65        1.79   971.31   0.953
  sub65                     78.32       0.00       0.00       2.13      66.89       8.05      74.94        2.06  1082.53   0.957
  sub66                     78.32       0.00       0.00       5.97      54.53      16.75      71.28        3.32  1400.33   0.910
  sub67                     78.32       0.00       0.00       1.18      70.81       5.09      75.90        1.41   936.48   0.969
  sub68                     78.32       0.00       0.00       2.20      66.17       8.77      74.94        2.06  1231.16   0.957
  sub69                     78.32       0.00       0.00       1.95      66.46       9.80      76.26        2.82  1447.68   0.974
  sub70                     78.32       0.00       0.00       6.43      51.53      20.20      71.72        2.07   789.18   0.916
  sub71                     78.32       0.00       0.00       1.25      70.73       5.02      75.74        1.98  1053.08   0.967
  sub72                     78.32       0.00       0.00       1.11      71.44       4.37      75.81        1.04   506.64   0.968
  
  
  ******************
  Node Depth Summary
  ******************
  
  ---------------------------------------------------------------------------------
                                 Average  Maximum  Maximum  Time of Max    Reported
                                   Depth    Depth      HGL   Occurrence   Max Depth
  Node                 Type       Meters   Meters   Meters  days hr:min      Meters
  ---------------------------------------------------------------------------------
  WS02003060           JUNCTION     0.24     0.38     5.32     0  03:05        0.38
  WS02003066           JUNCTION     0.20     0.30     5.85     0  02:18        0.30
  WS02003067           JUNCTION     0.51     0.70     6.02     0  03:05        0.70
  WS02003069           JUNCTION     0.27     0.43     5.01     0  02:18        0.43
  WS02003072           JUNCTION     0.33     0.50     4.87     0  02:19        0.50
  WS02003073           JUNCTION     0.19     0.30     4.36     0  02:19        0.30
  WS02004401           JUNCTION     0.59     0.85     6.85     0  02:14        0.85
  WS02004402           JUNCTION     0.62     0.88     6.84     0  02:15        0.88
  WS02004403           JUNCTION     0.65     0.89     6.82     0  02:14        0.89
  WS02004404           JUNCTION     0.72     0.96     6.81     0  02:14        0.96
  WS02004405           JUNCTION     0.72     0.96     6.81     0  02:14        0.96
  WS02004406           JUNCTION     0.73     0.96     6.79     0  03:03        0.96
  WS02004407           JUNCTION     0.18     0.30     6.61     0  02:16        0.30
  WS02004409           JUNCTION     0.40     0.67     6.44     0  02:16        0.67
  WS02004410           JUNCTION     0.42     0.68     6.40     0  02:16        0.68
  WS02004411           JUNCTION     0.44     0.69     6.37     0  02:17        0.69
  WS02004412           JUNCTION     0.47     0.70     6.34     0  02:17        0.70
  WS02004413           JUNCTION     0.63     0.86     6.33     0  02:17        0.86
  WS02006109           JUNCTION     0.65     1.30     7.91     0  02:42        1.01
  WS02006110           JUNCTION     0.66     1.38     7.96     0  02:42        0.96
  WS02006111           JUNCTION     0.18     0.29     6.99     0  03:09        0.29
  WS02006112           JUNCTION     0.75     1.08     6.96     0  03:13        1.05
  WS02006113           JUNCTION     0.27     0.46     7.35     0  02:44        0.46
  WS02006115           JUNCTION     0.48     0.75     6.89     0  03:00        0.75
  WS02006116           JUNCTION     0.56     0.83     6.87     0  02:13        0.83
  WS02006228           JUNCTION     0.65     1.60     8.26     0  02:42        1.11
  WS02006229           JUNCTION     0.62     1.68     8.37     0  02:42        1.14
  WS02006230           JUNCTION     0.62     2.02     8.77     0  02:42        1.26
  WS02006231           JUNCTION     0.43     1.67     8.80     0  02:42        1.02
  WS02006232           JUNCTION     0.57     1.62     8.66     0  02:42        1.21
  WS02006234           JUNCTION     0.50     1.54     8.70     0  02:00        1.21
  WS02006235           JUNCTION     0.54     1.60     8.76     0  02:41        1.32
  WS02006238           JUNCTION     0.57     1.64     8.79     0  02:41        1.35
  WS02006239           JUNCTION     0.53     1.63     8.84     0  02:41        1.31
  WS02006240           JUNCTION     0.50     1.56     8.85     0  02:41        1.26
  WS02006242           JUNCTION     0.57     1.55     8.82     0  02:41        1.32
  WS02006243           JUNCTION     0.48     1.40     8.82     0  02:41        1.21
  WS02006245           JUNCTION     0.48     1.31     8.80     0  02:41        1.19
  WS02006247           JUNCTION     0.51     1.26     8.76     0  02:41        1.25
  WS02006248           JUNCTION     0.47     1.10     8.69     0  01:45        1.10
  WS02006249           JUNCTION     0.50     1.09     8.69     0  01:41        1.09
  WS02006251           JUNCTION     0.50     1.49     9.16     0  02:29        1.26
  WS02006252           JUNCTION     0.36     1.50     9.74     0  00:00        0.82
  WS02006256           JUNCTION     1.06     2.35     9.28     0  00:00        2.35
  WSF200               JUNCTION     0.17     0.29     5.52     0  03:05        0.29
  YS02001580           JUNCTION     0.11     1.05     9.59     0  01:33        0.77
  YS02001583           JUNCTION     0.15     1.14     9.64     0  01:34        0.83
  YS02001586           JUNCTION     0.22     1.13     9.30     0  01:34        1.13
  YS02001590           JUNCTION     0.32     1.40     9.26     0  01:34        1.37
  YS02001593           JUNCTION     0.25     1.34     9.20     0  01:34        1.28
  YS02001596           JUNCTION     0.34     1.69     9.11     0  01:34        1.66
  YS02001600           JUNCTION     0.40     1.87     9.00     0  01:34        1.87
  YS02001601           JUNCTION     0.58     2.06     8.90     0  01:33        2.06
  YS02001602           JUNCTION     0.49     1.87     8.77     0  01:33        1.87
  YS02001605           JUNCTION     0.46     1.78     8.68     0  01:33        1.78
  YS02001607           JUNCTION     0.46     1.68     8.53     0  01:33        1.65
  YS02001610           JUNCTION     0.51     1.68     8.48     0  01:33        1.68
  YS02001613           JUNCTION     0.47     1.67     8.51     0  01:35        1.67
  YS02001616           JUNCTION     0.40     1.61     8.52     0  01:34        1.61
  YS02001619           JUNCTION     0.37     1.61     8.54     0  01:34        1.61
  YS02001622           JUNCTION     0.36     1.62     8.52     0  01:34        1.58
  YS02001625           JUNCTION     0.63     1.78     8.38     0  01:34        1.78
  YS02001629           JUNCTION     0.48     1.85     8.40     0  01:34        1.85
  YS02001633           JUNCTION     0.57     2.08     8.53     0  01:36        2.08
  YS02001641           JUNCTION     0.55     2.03     8.47     0  01:36        2.03
  YS02001644           JUNCTION     0.55     1.92     8.35     0  01:36        1.92
  YS02001647           JUNCTION     0.34     1.83     8.44     0  01:36        1.75
  YS02001649           JUNCTION     0.39     2.05     8.44     0  01:36        1.98
  YS02001652           JUNCTION     0.29     2.16     8.76     0  01:36        1.81
  YS02001655           JUNCTION     0.23     2.20     9.05     0  01:36        1.58
  YS02001658           JUNCTION     0.16     2.30     9.44     0  01:36        1.34
  YS02001661           JUNCTION     0.17     2.46     9.86     0  01:36        1.13
  YS02001664           JUNCTION     0.06     2.31    10.23     0  01:37        0.63
  YS02001745           JUNCTION     0.08     2.35     9.87     0  01:36        0.96
  YS02001748           JUNCTION     0.16     2.27     9.35     0  01:36        1.35
  YS02001751           JUNCTION     0.20     2.20     9.08     0  01:36        1.50
  YS02001754           JUNCTION     0.26     2.20     8.81     0  01:35        1.73
  YS02001757           JUNCTION     0.43     2.21     8.47     0  01:36        2.02
  YS02001759           JUNCTION     0.36     2.21     8.57     0  01:36        2.03
  YS02001762           JUNCTION     0.35     2.15     8.55     0  01:35        2.00
  YS02001765           JUNCTION     0.33     2.10     8.55     0  01:36        1.96
  YS02001767           JUNCTION     0.33     2.03     8.52     0  01:35        1.94
  YS02001770           JUNCTION     0.34     1.95     8.44     0  01:35        1.95
  YS02001774           JUNCTION     0.40     2.05     8.47     0  01:35        2.05
  YS02001779           JUNCTION     0.24     1.68     8.37     0  01:35        1.68
  YS02001783           JUNCTION     0.25     1.46     7.60     0  01:35        1.24
  YS02001784           JUNCTION     0.26     1.33     7.40     0  01:35        1.13
  YS02001786           JUNCTION     0.22     1.27     7.30     0  01:35        0.88
  YS02001788           JUNCTION     0.15     0.63     6.60     0  01:36        0.63
  YS02001790           JUNCTION     0.18     0.73     6.37     0  01:39        0.72
  YS02001791           JUNCTION     0.12     0.44     5.91     0  01:39        0.44
  YS02001793           JUNCTION     0.06     0.31     5.14     0  01:40        0.31
  YS02001882           JUNCTION     0.32     1.83     8.55     0  01:34        1.66
  YS02001884           JUNCTION     0.41     1.93     8.55     0  01:34        1.76
  YS02001887           JUNCTION     0.49     1.96     8.50     0  01:34        1.85
  YS02001890           JUNCTION     0.52     1.81     8.32     0  01:34        1.81
  YS02001895           JUNCTION     0.29     1.75     8.50     0  01:34        1.56
  YS02001898           JUNCTION     0.30     1.77     8.51     0  01:34        1.56
  YS02001901           JUNCTION     0.41     1.87     8.48     0  01:34        1.67
  YS02001904           JUNCTION     0.39     1.85     8.48     0  01:34        1.64
  YS02001907           JUNCTION     0.72     1.96     8.25     0  01:34        1.96
  YS02001910           JUNCTION     0.52     2.07     8.58     0  01:35        1.91
  YS02001915           JUNCTION     0.33     2.00     8.72     0  01:34        1.83
  YS02001918           JUNCTION     0.19     1.81     8.88     0  01:35        1.50
  YS02001920           JUNCTION     0.26     2.14     9.15     0  01:35        1.57
  YS02001923           JUNCTION     0.14     2.03     9.29     0  01:35        1.34
  YS02001926           JUNCTION     0.17     1.90     9.35     0  01:35        1.17
  YS02001929           JUNCTION     0.10     1.78     9.47     0  01:35        1.78
  YS02006553           JUNCTION     0.72     2.03     8.31     0  01:35        1.99
  YS02006556           JUNCTION     0.69     2.08     8.39     0  01:35        1.97
  YS02006558           JUNCTION     0.74     2.15     8.41     0  01:35        2.03
  YS02006561           JUNCTION     0.16     1.21     7.87     0  01:35        0.91
  YS02163301           JUNCTION     0.51     1.96     8.48     0  01:36        1.96
  YS02163601           JUNCTION     0.61     2.08     8.48     0  01:36        2.08
  YS02164001           JUNCTION     0.54     2.07     8.52     0  01:36        2.07
  CC-1                 OUTFALL      0.00     0.00     0.00     0  00:00        0.00
  CC-2                 OUTFALL      0.00     0.00     0.00     0  00:00        0.00
  JK-1                 OUTFALL      0.00     0.00     0.00     0  00:00        0.00
  JK-2                 OUTFALL      0.00     0.00     0.00     0  00:00        0.00
  WSC                  OUTFALL      0.19     0.30     0.97     0  02:19        0.30
  CC-storage           STORAGE      0.98     1.79     7.29     0  02:18        1.79
  JK-storage           STORAGE      2.84     4.23     5.03     0  02:00        4.19
  
  
  *******************
  Node Inflow Summary
  *******************
  
  -------------------------------------------------------------------------------------------------
                                  Maximum  Maximum                  Lateral       Total        Flow
                                  Lateral    Total  Time of Max      Inflow      Inflow     Balance
                                   Inflow   Inflow   Occurrence      Volume      Volume       Error
  Node                 Type           LPS      LPS  days hr:min    10^6 ltr    10^6 ltr     Percent
  -------------------------------------------------------------------------------------------------
  WS02003060           JUNCTION     16.53   553.05     0  03:05       0.476        5.93       0.040
  WS02003066           JUNCTION      0.00   535.89     0  02:18           0        5.45       0.027
  WS02003067           JUNCTION      0.00   535.91     0  02:17           0        5.46       0.078
  WS02003069           JUNCTION      0.32   552.63     0  02:17     0.00922        5.93       0.072
  WS02003072           JUNCTION      0.00   552.59     0  02:18           0        5.93       0.126
  WS02003073           JUNCTION      1.82   554.36     0  02:19      0.0524        5.97       0.101
  WS02004401           JUNCTION      0.00   538.22     0  03:02           0        5.56       0.188
  WS02004402           JUNCTION      0.00   538.25     0  03:02           0        5.55       0.191
  WS02004403           JUNCTION      0.00   537.53     0  03:02           0        5.54       0.186
  WS02004404           JUNCTION      0.16   537.71     0  03:02     0.00467        5.53       0.154
  WS02004405           JUNCTION      0.04   537.91     0  03:02      0.0011        5.53       0.231
  WS02004406           JUNCTION      0.00   537.67     0  03:02           0        5.51       0.381
  WS02004407           JUNCTION      0.00   536.90     0  03:03           0        5.49       0.023
  WS02004409           JUNCTION      0.00   536.53     0  02:16           0        5.49       0.055
  WS02004410           JUNCTION      0.00   536.38     0  02:16           0        5.49       0.085
  WS02004411           JUNCTION      0.00   536.31     0  02:16           0        5.48       0.107
  WS02004412           JUNCTION      0.00   536.12     0  02:17           0        5.48       0.142
  WS02004413           JUNCTION      0.00   536.19     0  03:04           0        5.47       0.248
  WS02006109           JUNCTION      1.23   564.60     0  02:30      0.0354        5.61       0.170
  WS02006110           JUNCTION      0.00   565.21     0  02:30           0         5.6       0.126
  WS02006111           JUNCTION      0.00   561.87     0  03:09           0        5.59       0.014
  WS02006112           JUNCTION      0.00   542.88     0  03:09           0        5.59       0.325
  WS02006113           JUNCTION      0.00   570.35     0  02:30           0        5.59       0.041
  WS02006115           JUNCTION      0.00   551.12     0  02:20           0        5.57       0.121
  WS02006116           JUNCTION      0.00   540.54     0  02:34           0        5.56       0.050
  WS02006228           JUNCTION      0.00   562.65     0  02:30           0        5.58       0.065
  WS02006229           JUNCTION      0.00   562.32     0  02:30           0        5.58       0.093
  WS02006230           JUNCTION     10.28   590.78     0  02:00       0.296        5.58       0.056
  WS02006231           JUNCTION      0.00   579.43     0  03:06           0        5.29      -0.020
  WS02006232           JUNCTION      0.00   578.57     0  03:06           0         5.3       0.209
  WS02006234           JUNCTION      0.00   574.09     0  03:06           0        5.29      -0.236
  WS02006235           JUNCTION      0.00   567.20     0  03:06           0        5.37       0.212
  WS02006238           JUNCTION      0.00   422.51     0  02:25           0         4.2      -0.115
  WS02006239           JUNCTION      0.00   422.03     0  03:25           0        4.15      -0.071
  WS02006240           JUNCTION      0.00   420.00     0  03:25           0        4.11      -0.036
  WS02006242           JUNCTION      0.00   420.00     0  03:25           0        4.09      -0.029
  WS02006243           JUNCTION      0.00   420.16     0  03:25           0        4.09      -0.051
  WS02006245           JUNCTION      0.00   419.23     0  03:25           0         4.1       0.306
  WS02006247           JUNCTION      0.00   419.67     0  03:30           0         4.1       0.021
  WS02006248           JUNCTION      0.00   418.52     0  03:30           0         4.1       0.075
  WS02006249           JUNCTION      0.00   459.02     0  00:00           0        4.43       0.275
  WS02006251           JUNCTION      0.08   407.24     0  01:42     0.00222        4.43      -0.016
  WS02006252           JUNCTION      0.00   400.00     0  00:00           0        4.42      -0.080
  WS02006256           JUNCTION      0.00   300.00     0  00:00           0        1.76      -1.154
  WSF200               JUNCTION      0.00   535.92     0  02:18           0        5.45       0.008
  YS02001580           JUNCTION      0.00   166.08     0  01:33           0     0.00487       3.319
  YS02001583           JUNCTION      0.00   268.60     0  01:34           0      0.0153      -9.827
  YS02001586           JUNCTION    789.18   789.18     0  01:43        2.07        2.08       0.077
  YS02001590           JUNCTION      0.00   318.06     0  02:06           0        1.52      -0.021
  YS02001593           JUNCTION      0.00   318.05     0  02:06           0        1.52       0.007
  YS02001596           JUNCTION      0.00   318.09     0  02:06           0        1.52      -0.015
  YS02001600           JUNCTION      0.00   318.05     0  02:06           0        1.52       0.005
  YS02001601           JUNCTION   1447.68  1765.21     0  01:40        2.82        4.35       0.001
  YS02001602           JUNCTION      0.00   579.48     0  01:33           0        2.48       0.014
  YS02001605           JUNCTION      0.00   579.45     0  01:33           0        2.32       0.012
  YS02001607           JUNCTION      0.00   579.14     0  01:33           0        2.32       0.078
  YS02001610           JUNCTION      0.00   780.66     0  01:42           0        2.68       0.068
  YS02001613           JUNCTION      0.00   548.52     0  01:33           0        2.05       0.075
  YS02001616           JUNCTION      0.00   537.00     0  01:34           0        2.05       0.005
  YS02001619           JUNCTION   1400.33  1400.33     0  01:42        3.32        5.02      -0.008
  YS02001622           JUNCTION      0.00   961.04     0  01:41           0        4.65      -0.009
  YS02001625           JUNCTION      0.00  1376.59     0  01:43           0        4.94       0.176
  YS02001629           JUNCTION      0.00   954.84     0  01:34           0        3.63       0.002
  YS02001633           JUNCTION   1082.73  1407.71     0  01:35        2.07        5.33       0.057
  YS02001641           JUNCTION      0.00  1407.70     0  01:35           0        4.97       0.049
  YS02001644           JUNCTION    971.35  1923.29     0  01:35        1.79        6.76       0.035
  YS02001647           JUNCTION      0.00  1922.62     0  01:35           0         6.1       0.005
  YS02001649           JUNCTION      0.00  2188.05     0  01:35           0        7.75       0.000
  YS02001652           JUNCTION      0.00  1046.34     0  01:37           0        1.65      -0.118
  YS02001655           JUNCTION      0.15  1045.68     0  01:37     0.00443        1.65      -0.092
  YS02001658           JUNCTION      0.00  1045.11     0  01:37           0        1.66      -0.067
  YS02001661           JUNCTION      0.00  1042.20     0  01:37           0        1.66       0.029
  YS02001664           JUNCTION    940.61   940.61     0  01:39        1.65        1.65      -0.023
  YS02001745           JUNCTION    618.34   781.19     0  01:36       0.989       0.993       0.210
  YS02001748           JUNCTION      0.04   932.15     0  01:36      0.0013       0.997      -0.419
  YS02001751           JUNCTION      0.01   667.89     0  01:37    0.000317           1       0.058
  YS02001754           JUNCTION      0.26   667.59     0  01:37     0.00749        1.02      -0.219
  YS02001757           JUNCTION      0.00  3596.66     0  01:37           0        11.9       0.032
  YS02001759           JUNCTION    853.83  1534.50     0  01:36        1.37        3.13      -0.017
  YS02001762           JUNCTION      0.00   795.21     0  01:36           0        1.76      -0.018
  YS02001765           JUNCTION      0.00   797.35     0  01:36           0        1.76      -0.005
  YS02001767           JUNCTION      0.54   798.28     0  01:36      0.0154        1.76      -0.004
  YS02001770           JUNCTION   1199.56  1199.56     0  01:39        2.08        2.13      -0.028
  YS02001774           JUNCTION      0.00   657.88     0  01:40           0       0.403       0.194
  YS02001779           JUNCTION      0.01   657.04     0  01:40    0.000144       0.357      -0.302
  YS02001783           JUNCTION      0.00  1167.68     0  01:36           0        4.59       0.004
  YS02001784           JUNCTION      1.06  1168.95     0  01:36      0.0305        4.62       0.010
  YS02001786           JUNCTION      0.06  1168.68     0  01:36     0.00162        4.62       0.015
  YS02001788           JUNCTION      0.07  1168.80     0  01:36     0.00204        4.62       0.006
  YS02001790           JUNCTION      0.15  1183.54     0  01:37     0.00446        4.63       0.027
  YS02001791           JUNCTION      0.00  1295.96     0  01:36           0        4.63      -0.034
  YS02001793           JUNCTION      0.00  1249.34     0  01:45           0        4.63       0.005
  YS02001882           JUNCTION      0.00    86.83     0  01:34           0      0.0129       4.135
  YS02001884           JUNCTION      0.00   153.79     0  01:34           0      0.0488       5.385
  YS02001887           JUNCTION    936.93   937.43     0  01:38        1.42        1.46       0.289
  YS02001890           JUNCTION      0.00   938.39     0  01:38           0        1.42       0.337
  YS02001895           JUNCTION      0.00   613.31     0  01:35           0        1.25       0.107
  YS02001898           JUNCTION      0.00   613.07     0  01:35           0        1.25      -0.011
  YS02001901           JUNCTION      0.00   612.19     0  01:35           0        1.25       0.256
  YS02001904           JUNCTION      0.00   611.58     0  01:35           0        1.25       0.211
  YS02001907           JUNCTION      0.00  2129.85     0  01:40           0        4.36       0.386
  YS02001910           JUNCTION      0.00  1568.44     0  01:40           0         3.1       0.226
  YS02001915           JUNCTION   1053.10  1567.56     0  01:40        1.98        3.16       0.048
  YS02001918           JUNCTION      0.00   763.11     0  01:35           0        1.21      -0.007
  YS02001920           JUNCTION      2.87   746.41     0  01:35      0.0827        1.19       0.043
  YS02001923           JUNCTION      0.04   992.72     0  01:35     0.00109        1.09      -0.077
  YS02001926           JUNCTION      0.05  1224.11     0  01:35      0.0015        1.07      -0.099
  YS02001929           JUNCTION    506.64   904.26     0  01:35        1.04        1.05      -0.028
  YS02006553           JUNCTION      0.00   792.77     0  02:03           0        2.58       0.465
  YS02006556           JUNCTION      0.00   792.79     0  02:03           0        2.59       0.304
  YS02006558           JUNCTION   1232.04  1232.04     0  01:39        2.09        4.64       0.074
  YS02006561           JUNCTION      0.00  1167.76     0  01:36           0        4.59      -0.005
  YS02163301           JUNCTION      0.00   868.87     0  01:34           0        3.62       0.036
  YS02163601           JUNCTION      0.11  1407.31     0  01:35     0.00317        4.96       0.093
  YS02164001           JUNCTION      0.00  1406.59     0  01:35           0        4.96       0.034
  CC-1                 OUTFALL       0.00   683.00     0  00:00           0        4.62       0.000
  CC-2                 OUTFALL       0.00   683.00     0  00:00           0        3.69       0.000
  JK-1                 OUTFALL       0.00  1000.00     0  00:00           0        2.63       0.000
  JK-2                 OUTFALL       0.00  1000.00     0  00:00           0       0.364       0.000
  WSC                  OUTFALL       0.00   554.27     0  02:19           0        5.97       0.000
  CC-storage           STORAGE       0.00  3596.23     0  01:37           0        14.1      -0.215
  JK-storage           STORAGE       0.00  1252.55     0  01:39           0        4.78      -0.355
  
  
  **********************
  Node Surcharge Summary
  **********************
  
  Surcharging occurs when water rises above the top of the highest conduit.
  ---------------------------------------------------------------------
                                               Max. Height   Min. Depth
                                   Hours       Above Crown    Below Rim
  Node                 Type      Surcharged         Meters       Meters
  ---------------------------------------------------------------------
  WS02006109           JUNCTION        2.33          0.475        1.345
  WS02006110           JUNCTION        1.02          0.465        1.385
  WS02006112           JUNCTION        1.13          0.078        1.602
  WS02006228           JUNCTION        2.32          0.775        1.425
  WS02006229           JUNCTION        2.33          0.875        1.575
  WS02006230           JUNCTION        1.03          0.943        0.627
  WS02006231           JUNCTION        1.25          0.965        0.565
  WS02006232           JUNCTION        2.36          0.919        0.561
  WS02006234           JUNCTION        1.77          0.818        0.422
  WS02006235           JUNCTION        2.28          0.886        0.404
  WS02006238           JUNCTION        2.33          0.925        0.505
  WS02006239           JUNCTION        2.31          0.892        0.398
  WS02006240           JUNCTION        2.33          0.852        0.538
  WS02006242           JUNCTION        2.34          0.820        0.000
  WS02006243           JUNCTION        2.32          0.691        0.079
  WS02006245           JUNCTION        2.32          0.605        0.245
  WS02006247           JUNCTION        2.32          0.551        0.209
  WS02006248           JUNCTION        2.31          0.380        0.000
  WS02006249           JUNCTION        2.31          0.390        0.000
  WS02006251           JUNCTION        1.37          0.461        0.719
  WS02006252           JUNCTION        2.47          1.100        0.000
  WS02006256           JUNCTION        6.24          2.050        0.000
  YS02001580           JUNCTION        0.78          0.450        0.000
  YS02001583           JUNCTION        0.79          0.500        0.000
  YS02001586           JUNCTION        0.96          0.510        0.000
  YS02001590           JUNCTION        1.05          0.750        0.000
  YS02001593           JUNCTION        1.05          0.721        0.119
  YS02001596           JUNCTION        1.17          0.958        0.112
  YS02001600           JUNCTION        1.32          1.190        0.000
  YS02001601           JUNCTION        1.65          1.440        0.000
  YS02001602           JUNCTION        1.58          1.270        0.000
  YS02001605           JUNCTION        1.53          1.180        0.000
  YS02001607           JUNCTION        1.05          0.680        0.000
  YS02001610           JUNCTION        1.08          0.680        0.000
  YS02001613           JUNCTION        1.05          0.669        0.031
  YS02001616           JUNCTION        1.01          0.610        0.000
  YS02001619           JUNCTION        0.99          0.610        0.000
  YS02001622           JUNCTION        0.99          0.620        0.000
  YS02001625           JUNCTION        1.18          0.780        0.000
  YS02001629           JUNCTION        0.93          0.470        0.000
  YS02001633           JUNCTION        1.22          1.060        0.000
  YS02001641           JUNCTION        1.18          1.032        0.068
  YS02001644           JUNCTION        1.16          0.920        0.000
  YS02001647           JUNCTION        0.95          0.835        0.065
  YS02001649           JUNCTION        1.12          1.050        0.000
  YS02001652           JUNCTION        0.89          1.130        0.000
  YS02001655           JUNCTION        0.66          1.200        0.000
  YS02001658           JUNCTION        0.33          1.300        0.000
  YS02001661           JUNCTION        0.06          1.390        0.000
  YS02001664           JUNCTION        0.01          1.310        0.000
  YS02001745           JUNCTION        0.01          1.350        0.000
  YS02001748           JUNCTION        0.24          1.190        0.000
  YS02001751           JUNCTION        0.47          1.200        0.000
  YS02001754           JUNCTION        0.78          1.150        0.000
  YS02001757           JUNCTION        1.20          1.210        0.000
  YS02001759           JUNCTION        1.09          1.209        0.001
  YS02001762           JUNCTION        1.05          1.150        0.000
  YS02001765           JUNCTION        1.00          1.100        0.000
  YS02001767           JUNCTION        0.96          1.030        0.000
  YS02001770           JUNCTION        0.92          0.920        0.000
  YS02001774           JUNCTION        1.03          1.050        0.000
  YS02001779           JUNCTION        0.75          0.680        0.000
  YS02001783           JUNCTION        0.67          0.663        0.937
  YS02001784           JUNCTION        0.64          0.527        0.963
  YS02001786           JUNCTION        0.53          0.472        0.958
  YS02001882           JUNCTION        0.61          0.830        0.000
  YS02001884           JUNCTION        0.62          0.870        0.000
  YS02001887           JUNCTION        0.66          0.913        0.037
  YS02001890           JUNCTION        0.67          0.760        0.000
  YS02001895           JUNCTION        0.60          0.750        0.000
  YS02001898           JUNCTION        0.59          0.740        0.000
  YS02001901           JUNCTION        0.64          0.870        0.000
  YS02001904           JUNCTION        0.63          0.850        0.000
  YS02001907           JUNCTION        0.87          0.950        0.000
  YS02001910           JUNCTION        0.70          1.071        0.029
  YS02001915           JUNCTION        0.61          1.000        0.000
  YS02001918           JUNCTION        0.52          0.810        0.000
  YS02001920           JUNCTION        0.53          1.140        0.000
  YS02001923           JUNCTION        0.17          0.820        0.000
  YS02001926           JUNCTION        0.20          0.900        0.000
  YS02001929           JUNCTION        0.01          0.780        0.000
  YS02006553           JUNCTION        0.89          1.028        0.162
  YS02006556           JUNCTION        0.79          1.038        0.312
  YS02006558           JUNCTION        0.78          1.046        0.354
  YS02006561           JUNCTION        0.48          0.413        0.737
  YS02163301           JUNCTION        1.20          0.962        0.068
  YS02163601           JUNCTION        1.26          1.080        0.000
  YS02164001           JUNCTION        1.18          1.065        0.035
  
  
  *********************
  Node Flooding Summary
  *********************
  
  Flooding refers to all water that overflows a node, whether it ponds or not.
  --------------------------------------------------------------------------
                                                             Total   Maximum
                                 Maximum   Time of Max       Flood    Ponded
                        Hours       Rate    Occurrence      Volume     Depth
  Node                 Flooded       LPS   days hr:min    10^6 ltr    Meters
  --------------------------------------------------------------------------
  WS02006242              0.01      2.46      0  02:41       0.000     0.000
  WS02006248              0.02     20.88      0  02:05       0.001     0.000
  WS02006249              1.31     97.45      0  01:42       0.311     0.000
  WS02006252              0.01    245.63      0  00:00       0.000     0.000
  WS02006256              1.63    293.19      0  00:00       0.577     0.000
  YS02001580              0.01    104.34      0  01:34       0.001     0.000
  YS02001583              0.01    239.39      0  01:34       0.000     0.000
  YS02001586              0.64    471.59      0  01:43       0.548     0.000
  YS02001590              0.01      2.75      0  01:34       0.000     0.000
  YS02001600              0.01      0.92      0  01:34       0.000     0.000
  YS02001601              0.88   1367.36      0  01:40       1.862     0.000
  YS02001602              0.80     61.98      0  01:46       0.163     0.000
  YS02001605              0.01      4.36      0  01:33       0.000     0.000
  YS02001607              0.01     77.00      0  01:33       0.000     0.000
  YS02001610              0.70    780.35      0  01:42       0.984     0.000
  YS02001616              0.01    138.43      0  01:34       0.000     0.000
  YS02001619              0.01    303.65      0  01:34       0.001     0.000
  YS02001622              0.01    301.34      0  01:34       0.001     0.000
  YS02001625              0.68   1376.49      0  01:43       1.658     0.000
  YS02001629              0.15    389.63      0  01:34       0.093     0.000
  YS02001633              0.01      1.74      0  01:36       0.000     0.000
  YS02001644              0.27   1153.09      0  01:40       0.647     0.000
  YS02001649              0.01    184.78      0  01:36       0.002     0.000
  YS02001652              0.01     48.44      0  01:36       0.000     0.000
  YS02001655              0.01    528.72      0  01:36       0.001     0.000
  YS02001658              0.01    450.34      0  01:36       0.001     0.000
  YS02001661              0.01    318.96      0  01:36       0.000     0.000
  YS02001664              0.01    112.58      0  01:37       0.000     0.000
  YS02001745              0.01    417.33      0  01:36       0.000     0.000
  YS02001748              0.01    503.99      0  01:36       0.002     0.000
  YS02001751              0.01    397.17      0  01:36       0.001     0.000
  YS02001754              0.01    299.57      0  01:35       0.000     0.000
  YS02001757              0.01     31.13      0  01:36       0.000     0.000
  YS02001762              0.01    105.23      0  01:35       0.000     0.000
  YS02001765              0.01      9.84      0  01:36       0.000     0.000
  YS02001767              0.01    192.59      0  01:35       0.000     0.000
  YS02001770              0.01    299.62      0  01:35       0.002     0.000
  YS02001774              0.01    130.99      0  01:35       0.000     0.000
  YS02001779              0.24    656.94      0  01:40       0.336     0.000
  YS02001882              0.01     64.53      0  01:34       0.000     0.000
  YS02001884              0.01     16.75      0  01:34       0.000     0.000
  YS02001890              0.21    412.22      0  01:38       0.165     0.000
  YS02001895              0.01    255.65      0  01:34       0.000     0.000
  YS02001898              0.01    311.43      0  01:34       0.001     0.000
  YS02001901              0.01      6.21      0  01:34       0.000     0.000
  YS02001904              0.01     65.06      0  01:34       0.000     0.000
  YS02001907              0.46   2129.41      0  01:40       1.783     0.000
  YS02001915              0.01    236.40      0  01:34       0.000     0.000
  YS02001918              0.01    266.17      0  01:36       0.004     0.000
  YS02001920              0.01    328.09      0  01:35       0.000     0.000
  YS02001923              0.01    399.81      0  01:36       0.003     0.000
  YS02001926              0.01    811.32      0  01:36       0.005     0.000
  YS02001929              0.01    758.28      0  01:35       0.002     0.000
  YS02163601              0.01      3.92      0  01:36       0.000     0.000
  
  
  **********************
  Storage Volume Summary
  **********************
  
  ------------------------------------------------------------------------------------------------
                         Average    Avg   Evap  Exfil     Maximum    Max    Time of Max    Maximum
                          Volume   Pcnt   Pcnt   Pcnt      Volume   Pcnt     Occurrence    Outflow
  Storage Unit           1000 m³   Full   Loss   Loss     1000 m³   Full    days hr:min        LPS
  ------------------------------------------------------------------------------------------------
  CC-storage               2.736   42.7    0.0    0.0       5.000   78.0       0  02:18    1783.53
  JK-storage               0.143   48.9    0.0    0.0       0.213   73.0       0  02:00    2300.00
  
  
  ***********************
  Outfall Loading Summary
  ***********************
  
  -----------------------------------------------------------
                         Flow       Avg       Max       Total
                         Freq      Flow      Flow      Volume
  Outfall Node           Pcnt       LPS       LPS    10^6 ltr
  -----------------------------------------------------------
  CC-1                  26.92    683.00    683.00       4.621
  CC-2                  24.89    683.00    683.00       3.694
  JK-1                  12.08   1000.00   1000.00       2.626
  JK-2                   1.48   1000.00   1000.00       0.364
  WSC                   99.96    266.33    554.27       5.968
  -----------------------------------------------------------
  System                33.07   3632.33   3366.23      17.273
  
  
  ********************
  Link Flow Summary
  ********************
  
  -----------------------------------------------------------------------------
                                 Maximum  Time of Max   Maximum    Max/    Max/
                                  |Flow|   Occurrence   |Veloc|    Full    Full
  Link                 Type          LPS  days hr:min     m/sec    Flow   Depth
  -----------------------------------------------------------------------------
  1                    CONDUIT    554.27     0  02:19      2.83    0.19    0.30
  WS02003060WS02003069 CONDUIT    552.31     0  02:17      1.64    0.22    0.34
  WS02003066WSF200     CONDUIT    535.92     0  02:18      2.85    0.09    0.22
  WS02003067WS02003066 CONDUIT    535.89     0  02:18      1.21    0.17    0.42
  WS02003069WS02003072 CONDUIT    552.59     0  02:18      1.37    0.27    0.39
  WS02003072WS02003073 CONDUIT    552.54     0  02:19      1.43    1.19    0.37
  WS02004401WS02004402 CONDUIT    538.25     0  03:02      0.98    0.65    0.86
  WS02004402WS02004403 CONDUIT    537.53     0  03:02      0.97    0.77    0.88
  WS02004403WS02004404 CONDUIT    537.55     0  03:02      0.92    0.39    0.93
  WS02004404WS02004405 CONDUIT    537.87     0  03:02      1.08    5.27    0.96
  WS02004405WS02004406 CONDUIT    537.67     0  03:02      0.99    1.06    0.96
  WS02004406WS02004407 CONDUIT    536.90     0  03:03      1.04    0.24    0.63
  WS02004407WS02004409 CONDUIT    536.53     0  02:16      1.57    0.19    0.48
  WS02004409WS02004410 CONDUIT    536.38     0  02:16      1.06    0.69    0.67
  WS02004410WS02004411 CONDUIT    536.31     0  02:16      1.01    0.73    0.69
  WS02004411WS02004412 CONDUIT    536.12     0  02:17      0.98    0.76    0.69
  WS02004412WS02004413 CONDUIT    536.19     0  03:04      0.82    0.36    0.78
  WS02004413WS02003067 CONDUIT    535.91     0  02:17      1.11    0.23    0.59
  WS02006109WS02006110 CONDUIT    565.21     0  02:30      1.13    1.09    1.00
  WS02006110WS02006113 CONDUIT    570.35     0  02:30      1.38    0.52    0.79
  WS02006111WS02006112 CONDUIT    542.88     0  03:09      1.81    0.26    0.67
  WS02006112WS02006115 CONDUIT    551.12     0  02:20      0.88    0.33    0.87
  WS02006113WS02006111 CONDUIT    561.87     0  03:09      2.47    0.67    0.46
  WS02006115WS02006116 CONDUIT    540.54     0  02:34      1.15    0.69    0.76
  WS02006116WS02004401 CONDUIT    538.22     0  03:02      0.99    0.74    0.84
  WS02006228WS02006109 CONDUIT    563.37     0  02:30      1.12    2.46    1.00
  WS02006229WS02006228 CONDUIT    562.65     0  02:30      1.14    1.86    1.00
  WS02006230WS02006229 CONDUIT    562.32     0  02:30      1.46   12.51    1.00
  WS02006231WS02006230 CONDUIT    580.50     0  02:00      1.57    8.81    1.00
  WS02006232WS02006231 CONDUIT    579.43     0  03:06      1.51    1.21    1.00
  WS02006234WS02006232 CONDUIT    578.57     0  03:06      1.50    1.17    1.00
  WS02006235WS02006234 CONDUIT    574.09     0  03:06      1.49    6.06    1.00
  WS02006238WS02006235 CONDUIT    423.49     0  02:15      1.56    0.95    1.00
  WS02006239WS02006238 CONDUIT    422.51     0  02:25      1.10    1.35    1.00
  WS02006240WS02006239 CONDUIT    422.03     0  03:25      1.24    1.33    1.00
  WS02006242WS02006240 CONDUIT    420.00     0  03:25      1.13    1.67    1.00
  WS02006243WS02006242 CONDUIT    420.00     0  03:25      1.40    0.90    1.00
  WS02006245WS02006243 CONDUIT    420.16     0  03:25      1.45    1.24    1.00
  WS02006247WS02006245 CONDUIT    419.23     0  03:25      1.43    3.32    1.00
  WS02006248WS02006247 CONDUIT    419.67     0  03:30      1.44    0.91    1.00
  WS02006249WS02006248 CONDUIT    418.52     0  03:30      1.36    2.29    1.00
  WS02006251WS02006249 CONDUIT    459.02     0  00:00      1.99    1.32    1.00
  WS02006252WS02006251 CONDUIT    407.16     0  01:42     24.61    1.49    1.00
  WS02006256WS02006235 CONDUIT    289.22     0  01:35      4.23    3.06    1.00
  WSF200WS02003060     CONDUIT    536.53     0  03:05      2.06    0.12    0.28
  YS02001580YS02001583 CONDUIT    166.08     0  01:33      0.89    0.64    1.00
  YS02001583YS02001586 CONDUIT    205.83     0  01:33      0.93    0.31    1.00
  YS02001586YS02001590 CONDUIT    318.06     0  02:06      1.28    0.56    1.00
  YS02001590YS02001593 CONDUIT    318.05     0  02:06      1.12    2.00    1.00
  YS02001593YS02001596 CONDUIT    318.09     0  02:06      1.73    0.50    1.00
  YS02001596YS02001600 CONDUIT    318.05     0  02:06      1.22    0.62    1.00
  YS02001600YS02001601 CONDUIT    317.99     0  02:06      1.12    0.55    1.00
  YS02001601YS02001602 CONDUIT    579.48     0  01:33      2.05    2.09    1.00
  YS02001602YS02001605 CONDUIT    579.45     0  01:33      2.05   12.26    1.00
  YS02001605YS02001607 CONDUIT    579.14     0  01:33      2.05    3.18    1.00
  YS02001607YS02001610 CONDUIT    548.17     0  01:33      0.73    0.52    1.00
  YS02001610YS02001613 CONDUIT    548.52     0  01:33      0.70    0.63    1.00
  YS02001613YS02001616 CONDUIT    537.00     0  01:34      0.68    0.46    1.00
  YS02001616YS02001619 CONDUIT    516.68     0  01:34      0.68    0.90    1.00
  YS02001619YS02001622 CONDUIT    961.04     0  01:41      1.31    1.42    1.00
  YS02001622YS02001625 CONDUIT    961.43     0  01:40      1.22    0.51    1.00
  YS02001625YS02001629 CONDUIT    954.84     0  01:34      1.22    0.45    1.00
  YS02001629YS02163301 CONDUIT    868.87     0  01:34      1.11    1.07    1.00
  YS02001633YS02163601 CONDUIT   1407.20     0  01:35      1.79    1.48    1.00
  YS02001641YS02001644 CONDUIT   1408.71     0  01:35      1.79    4.55    1.00
  YS02001644YS02001647 CONDUIT   1922.62     0  01:35      2.45    1.13    1.00
  YS02001647YS02001649 CONDUIT   1926.34     0  01:35      2.45    1.02    1.00
  YS02001649YS02001757 CONDUIT   2187.12     0  01:35      2.78    1.33    1.00
  YS02001652YS02001649 CONDUIT   1045.87     0  01:37      1.33    0.52    1.00
  YS02001655YS02001652 CONDUIT   1046.34     0  01:37      1.59    0.51    1.00
  YS02001658YS02001655 CONDUIT   1045.53     0  01:37      2.06    0.44    1.00
  YS02001661YS02001658 CONDUIT   1045.11     0  01:37      2.46    0.41    1.00
  YS02001664YS02001661 CONDUIT   1042.20     0  01:37      2.54    0.33    1.00
  YS02001745YS02001748 CONDUIT    669.07     0  01:37      2.44    0.26    1.00
  YS02001748YS02001751 CONDUIT    667.88     0  01:37      1.91    0.34    1.00
  YS02001751YS02001754 CONDUIT    667.33     0  01:37      1.59    0.32    1.00
  YS02001754YS02001757 CONDUIT    667.01     0  01:37      0.85    0.27    1.00
  YS02001757CaochengTiaoxuchi CONDUIT   3596.23     0  01:37      4.58    1.56    1.00
  YS02001759YS02001757 CONDUIT   1533.98     0  01:36      1.95    1.09    1.00
  YS02001762YS02001759 CONDUIT    794.54     0  01:36      1.01    0.92    1.00
  YS02001765YS02001762 CONDUIT    795.21     0  01:36      1.01    0.75    1.00
  YS02001767YS02001765 CONDUIT    797.35     0  01:36      1.02    1.00    1.00
  YS02001770YS02001767 CONDUIT    797.75     0  01:36      1.02    3.16    1.00
  YS02001774YS02001770 CONDUIT    657.88     0  01:40      0.84    0.42    1.00
  YS02001779YS02001774 CONDUIT    657.03     0  01:40      0.84    0.33    1.00
  YS02001783YS02001784 CONDUIT   1167.89     0  01:36      2.32    1.61    1.00
  YS02001784YS02001785 CONDUIT   1168.62     0  01:36      2.32    2.72    1.00
  YS02001786YS02001788 CONDUIT   1168.73     0  01:36      2.49    2.25    0.89
  YS02001788YS02001790 CONDUIT   1183.38     0  01:37      2.72    0.87    0.84
  YS02001790YS02001791 CONDUIT   1295.96     0  01:36      3.44    1.41    0.71
  YS02001791YS02001793 CONDUIT   1249.34     0  01:45      6.48    0.54    0.45
  YS02001793JiankangQianchi CONDUIT   1252.55     0  01:39      2.48    0.10    0.65
  YS02001882YS02001884 CONDUIT     86.83     0  01:34      0.17    0.10    1.00
  YS02001884YS02001887 CONDUIT    153.79     0  01:34      0.20    0.20    1.00
  YS02001887YS02001890 CONDUIT    938.39     0  01:38      1.19    1.61    1.00
  YS02001890YS02001895 CONDUIT    613.31     0  01:35      0.78    0.29    1.00
  YS02001895YS02001898 CONDUIT    613.07     0  01:35      0.78    1.06    1.00
  YS02001898YS02001901 CONDUIT    612.19     0  01:35      0.78    0.39    1.00
  YS02001901YS02001904 CONDUIT    611.58     0  01:35      0.78    0.95    1.00
  YS02001904YS02001907 CONDUIT    610.06     0  01:35      0.78    0.21    1.00
  YS02001907YS02006553 CONDUIT    792.77     0  02:03      0.88    0.93    1.00
  YS02001910YS02001907 CONDUIT   1567.66     0  01:40      2.00    0.88    1.00
  YS02001915YS02001910 CONDUIT   1568.44     0  01:40      2.00    0.78    1.00
  YS02001918YS02001915 CONDUIT    763.11     0  01:35      0.97    0.42    1.00
  YS02001920YS02001918 CONDUIT    743.54     0  01:35      0.95    0.72    1.00
  YS02001923YS02001920 CONDUIT    763.03     0  01:35      1.04    0.34    1.00
  YS02001926YS02001923 CONDUIT    985.62     0  01:35      1.41    1.41    1.00
  YS02001929YS02001926 CONDUIT    601.91     0  01:35      1.23    0.29    1.00
  YS02006553YS02006556 CONDUIT    792.79     0  02:03      1.01    0.68    1.00
  YS02006556YS02006558 CONDUIT    793.92     0  02:03      1.01    0.63    1.00
  YS02006558YS02006561 CONDUIT   1167.76     0  01:36      4.13    2.58    1.00
  YS02006561YS02001783 CONDUIT   1167.68     0  01:36      2.32    0.60    1.00
  YS02163301YS02001633 CONDUIT    868.75     0  01:34      1.11    0.82    1.00
  YS02163601YS02164001 CONDUIT   1406.59     0  01:35      1.79    1.25    1.00
  YS02164001YS02001641 CONDUIT   1407.70     0  01:35      1.79    1.92    1.00
  CC-R1                PUMP       683.00     0  00:00              1.00
  CC-R2                PUMP       683.00     0  00:00              1.00
  CC-S1                PUMP       200.00     0  00:00              1.00
  CC-S2                PUMP       200.00     0  00:00              1.00
  JK-R1                PUMP      1000.00     0  00:00              1.00
  JK-R2                PUMP      1000.00     0  00:00              1.00
  JK-S                 PUMP       300.00     0  00:00              1.00
  
  
  ***************************
  Flow Classification Summary
  ***************************
  
  -------------------------------------------------------------------------------------
                      Adjusted    ---------- Fraction of Time in Flow Class ---------- 
                       /Actual         Up    Down  Sub   Sup   Up    Down  Norm  Inlet 
  Conduit               Length    Dry  Dry   Dry   Crit  Crit  Crit  Crit  Ltd   Ctrl  
  -------------------------------------------------------------------------------------
  1                       1.00   0.00  0.00  0.00  0.00  1.00  0.00  0.00  0.44  0.00
  WS02003060WS02003069    1.00   0.00  0.00  0.00  0.99  0.01  0.00  0.00  0.67  0.00
  WS02003066WSF200        1.00   0.13  0.00  0.00  0.00  0.87  0.00  0.00  0.73  0.00
  WS02003067WS02003066    1.00   0.10  0.02  0.00  0.88  0.00  0.00  0.00  0.00  0.00
  WS02003069WS02003072    1.00   0.00  0.00  0.00  0.99  0.01  0.00  0.00  0.69  0.00
  WS02003072WS02003073    1.00   0.00  0.00  0.00  0.00  0.00  0.00  1.00  0.00  0.00
  WS02004401WS02004402    1.00   0.02  0.00  0.00  0.98  0.00  0.00  0.00  0.00  0.00
  WS02004402WS02004403    1.00   0.02  0.00  0.00  0.97  0.00  0.00  0.00  0.00  0.00
  WS02004403WS02004404    1.00   0.00  0.03  0.00  0.97  0.00  0.00  0.00  0.00  0.00
  WS02004404WS02004405    1.00   0.00  0.00  0.00  1.00  0.00  0.00  0.00  0.00  0.00
  WS02004405WS02004406    1.00   0.00  0.00  0.00  1.00  0.00  0.00  0.00  0.00  0.00
  WS02004406WS02004407    1.00   0.00  0.05  0.00  0.95  0.00  0.00  0.00  0.00  0.00
  WS02004407WS02004409    1.00   0.05  0.00  0.00  0.94  0.01  0.00  0.00  0.94  0.00
  WS02004409WS02004410    1.00   0.05  0.00  0.00  0.95  0.00  0.00  0.00  0.03  0.00
  WS02004410WS02004411    1.00   0.05  0.00  0.00  0.95  0.00  0.00  0.00  0.01  0.00
  WS02004411WS02004412    1.00   0.05  0.00  0.00  0.95  0.00  0.00  0.00  0.00  0.00
  WS02004412WS02004413    1.00   0.05  0.00  0.00  0.94  0.00  0.00  0.00  0.01  0.00
  WS02004413WS02003067    1.00   0.06  0.04  0.00  0.00  0.00  0.90  0.00  0.00  0.00
  WS02006109WS02006110    1.00   0.00  0.01  0.00  0.98  0.00  0.01  0.00  0.00  0.00
  WS02006110WS02006113    1.00   0.01  0.01  0.00  0.98  0.00  0.00  0.00  0.00  0.00
  WS02006111WS02006112    1.00   0.02  0.00  0.00  0.98  0.00  0.00  0.00  0.98  0.00
  WS02006112WS02006115    1.00   0.02  0.00  0.00  0.97  0.00  0.00  0.00  0.00  0.00
  WS02006113WS02006111    1.00   0.02  0.00  0.00  0.00  0.98  0.00  0.00  0.14  0.00
  WS02006115WS02006116    1.00   0.02  0.00  0.00  0.97  0.00  0.00  0.01  0.00  0.00
  WS02006116WS02004401    1.00   0.02  0.00  0.00  0.98  0.00  0.00  0.00  0.00  0.00
  WS02006228WS02006109    1.00   0.00  0.00  0.00  1.00  0.00  0.00  0.00  0.00  0.00
  WS02006229WS02006228    1.00   0.00  0.00  0.00  0.99  0.00  0.00  0.01  0.00  0.00
  WS02006230WS02006229    1.00   0.00  0.00  0.00  0.99  0.00  0.00  0.01  0.01  0.00
  WS02006231WS02006230    1.00   0.00  0.00  0.00  0.30  0.00  0.69  0.00  0.00  0.00
  WS02006232WS02006231    1.00   0.00  0.00  0.00  0.99  0.00  0.01  0.00  0.00  0.00
  WS02006234WS02006232    1.00   0.00  0.00  0.00  1.00  0.00  0.00  0.00  0.10  0.00
  WS02006235WS02006234    1.00   0.00  0.00  0.00  0.86  0.00  0.14  0.00  0.00  0.00
  WS02006238WS02006235    1.00   0.00  0.00  0.00  1.00  0.00  0.00  0.00  0.00  0.00
  WS02006239WS02006238    1.00   0.00  0.00  0.00  1.00  0.00  0.00  0.00  0.22  0.00
  WS02006240WS02006239    1.00   0.00  0.00  0.00  0.67  0.00  0.00  0.33  0.03  0.00
  WS02006242WS02006240    1.00   0.00  0.00  0.00  0.99  0.00  0.01  0.00  0.00  0.00
  WS02006243WS02006242    1.00   0.00  0.00  0.00  0.99  0.00  0.00  0.01  0.50  0.00
  WS02006245WS02006243    1.00   0.00  0.00  0.00  0.78  0.00  0.00  0.22  0.00  0.00
  WS02006247WS02006245    1.00   0.00  0.00  0.00  0.98  0.00  0.00  0.02  0.00  0.00
  WS02006248WS02006247    1.00   0.00  0.00  0.00  0.98  0.00  0.00  0.02  0.36  0.00
  WS02006249WS02006248    1.00   0.00  0.00  0.00  0.50  0.00  0.50  0.00  0.00  0.00
  WS02006251WS02006249    1.00   0.00  0.00  0.00  0.99  0.01  0.00  0.00  0.50  0.00
  WS02006252WS02006251    1.00   0.00  0.49  0.00  0.17  0.00  0.34  0.00  0.00  0.00
  WS02006256WS02006235    1.00   0.00  0.00  0.00  0.99  0.01  0.00  0.00  0.00  0.00
  WSF200WS02003060        1.00   0.00  0.13  0.00  0.28  0.59  0.00  0.00  0.46  0.00
  YS02001580YS02001583    1.00   0.19  0.58  0.00  0.22  0.00  0.00  0.00  0.68  0.00
  YS02001583YS02001586    1.00   0.42  0.30  0.00  0.28  0.00  0.00  0.00  0.68  0.00
  YS02001586YS02001590    1.00   0.13  0.00  0.00  0.43  0.04  0.00  0.40  0.33  0.00
  YS02001590YS02001593    1.00   0.13  0.01  0.00  0.15  0.00  0.72  0.00  0.00  0.00
  YS02001593YS02001596    1.00   0.13  0.00  0.00  0.17  0.01  0.00  0.69  0.02  0.00
  YS02001596YS02001600    1.00   0.13  0.00  0.00  0.22  0.01  0.00  0.63  0.04  0.00
  YS02001600YS02001601    1.00   0.13  0.01  0.00  0.86  0.00  0.00  0.00  0.59  0.00
  YS02001601YS02001602    1.00   0.13  0.01  0.00  0.87  0.00  0.00  0.00  0.00  0.00
  YS02001602YS02001605    1.00   0.13  0.00  0.00  0.87  0.00  0.00  0.00  0.00  0.00
  YS02001605YS02001607    1.00   0.14  0.00  0.00  0.86  0.00  0.00  0.00  0.00  0.00
  YS02001607YS02001610    1.00   0.13  0.01  0.00  0.86  0.00  0.00  0.00  0.01  0.00
  YS02001610YS02001613    1.00   0.13  0.00  0.00  0.87  0.00  0.00  0.00  0.00  0.00
  YS02001613YS02001616    1.00   0.13  0.00  0.00  0.87  0.00  0.00  0.00  0.00  0.00
  YS02001616YS02001619    1.00   0.13  0.00  0.00  0.87  0.00  0.00  0.00  0.00  0.00
  YS02001619YS02001622    1.00   0.13  0.00  0.00  0.87  0.00  0.00  0.00  0.29  0.00
  YS02001622YS02001625    1.00   0.13  0.00  0.00  0.87  0.00  0.00  0.00  0.03  0.00
  YS02001625YS02001629    1.00   0.13  0.04  0.00  0.19  0.00  0.64  0.00  0.00  0.00
  YS02001629YS02163301    1.00   0.15  0.01  0.00  0.84  0.00  0.00  0.00  0.00  0.00
  YS02001633YS02163601    1.00   0.00  0.01  0.00  0.99  0.00  0.00  0.00  0.14  0.00
  YS02001641YS02001644    1.00   0.00  0.01  0.00  0.99  0.00  0.00  0.00  0.00  0.00
  YS02001644YS02001647    1.00   0.00  0.16  0.00  0.84  0.00  0.00  0.00  0.00  0.00
  YS02001647YS02001649    1.00   0.00  0.16  0.00  0.59  0.24  0.00  0.00  0.55  0.00
  YS02001649YS02001757    1.00   0.00  0.00  0.00  0.91  0.09  0.00  0.00  0.40  0.00
  YS02001652YS02001649    1.00   0.00  0.00  0.00  0.97  0.03  0.00  0.00  0.71  0.00
  YS02001655YS02001652    1.00   0.00  0.00  0.00  0.22  0.00  0.00  0.77  0.04  0.00
  YS02001658YS02001655    1.00   0.00  0.14  0.00  0.70  0.16  0.00  0.00  0.66  0.00
  YS02001661YS02001658    1.00   0.14  0.00  0.00  0.54  0.32  0.00  0.00  0.69  0.00
  YS02001664YS02001661    1.00   0.13  0.00  0.00  0.78  0.09  0.00  0.00  0.84  0.00
  YS02001745YS02001748    1.00   0.00  0.00  0.00  0.14  0.01  0.00  0.85  0.05  0.00
  YS02001748YS02001751    1.00   0.00  0.00  0.00  0.87  0.13  0.00  0.00  0.77  0.00
  YS02001751YS02001754    1.00   0.00  0.00  0.00  0.22  0.00  0.00  0.78  0.04  0.00
  YS02001754YS02001757    1.00   0.00  0.00  0.00  1.00  0.00  0.00  0.00  0.76  0.00
  YS02001757CaochengTiaoxuchi    1.00   0.00  0.00  0.00  1.00  0.00  0.00  0.00  0.60  0.00
  YS02001759YS02001757    1.00   0.00  0.00  0.00  0.99  0.01  0.00  0.00  0.51  0.00
  YS02001762YS02001759    1.00   0.00  0.00  0.00  1.00  0.00  0.00  0.00  0.05  0.00
  YS02001765YS02001762    1.00   0.00  0.00  0.00  1.00  0.00  0.00  0.00  0.64  0.00
  YS02001767YS02001765    1.00   0.00  0.00  0.00  1.00  0.00  0.00  0.00  0.01  0.00
  YS02001770YS02001767    1.00   0.00  0.00  0.00  1.00  0.00  0.00  0.00  0.00  0.00
  YS02001774YS02001770    1.00   0.00  0.13  0.00  0.70  0.00  0.17  0.00  0.02  0.00
  YS02001779YS02001774    1.00   0.00  0.00  0.00  1.00  0.00  0.00  0.00  0.75  0.00
  YS02001783YS02001784    1.00   0.00  0.17  0.00  0.83  0.00  0.00  0.00  0.55  0.00
  YS02001784YS02001785    1.00   0.00  0.00  0.00  1.00  0.00  0.00  0.00  0.16  0.00
  YS02001786YS02001788    1.00   0.00  0.00  0.00  0.80  0.20  0.00  0.00  0.00  0.00
  YS02001788YS02001790    1.00   0.00  0.00  0.00  0.21  0.79  0.00  0.00  0.79  0.00
  YS02001790YS02001791    1.00   0.00  0.00  0.00  0.01  0.99  0.00  0.00  0.16  0.00
  YS02001791YS02001793    1.00   0.00  0.00  0.00  0.00  1.00  0.00  0.00  0.01  0.00
  YS02001793JiankangQianchi    1.00   0.00  0.00  0.00  0.99  0.01  0.00  0.00  0.93  0.00
  YS02001882YS02001884    1.00   0.15  0.01  0.00  0.85  0.00  0.00  0.00  0.00  0.00
  YS02001884YS02001887    1.00   0.06  0.05  0.00  0.89  0.00  0.00  0.00  0.00  0.00
  YS02001887YS02001890    1.00   0.00  0.00  0.00  0.97  0.00  0.03  0.00  0.00  0.00
  YS02001890YS02001895    1.00   0.00  0.15  0.00  0.84  0.00  0.00  0.00  0.00  0.00
  YS02001895YS02001898    1.00   0.16  0.00  0.00  0.83  0.00  0.01  0.00  0.00  0.00
  YS02001898YS02001901    1.00   0.16  0.00  0.00  0.84  0.00  0.00  0.00  0.01  0.00
  YS02001901YS02001904    1.00   0.16  0.00  0.00  0.84  0.00  0.00  0.00  0.00  0.00
  YS02001904YS02001907    1.00   0.00  0.16  0.00  0.84  0.00  0.00  0.00  0.00  0.00
  YS02001907YS02006553    1.00   0.00  0.02  0.00  0.98  0.00  0.00  0.00  0.00  0.00
  YS02001910YS02001907    1.00   0.00  0.00  0.00  0.97  0.00  0.00  0.03  0.12  0.00
  YS02001915YS02001910    1.00   0.00  0.00  0.00  0.97  0.03  0.00  0.00  0.14  0.00
  YS02001918YS02001915    1.00   0.00  0.01  0.00  0.98  0.02  0.00  0.00  0.73  0.00
  YS02001920YS02001918    1.00   0.00  0.01  0.00  0.99  0.00  0.00  0.00  0.00  0.00
  YS02001923YS02001920    1.00   0.00  0.00  0.00  1.00  0.00  0.00  0.00  0.91  0.00
  YS02001926YS02001923    1.00   0.00  0.07  0.00  0.08  0.00  0.85  0.00  0.00  0.00
  YS02001929YS02001926    1.00   0.00  0.13  0.00  0.87  0.00  0.00  0.00  0.80  0.00
  YS02006553YS02006556    1.00   0.01  0.00  0.00  0.99  0.00  0.00  0.00  0.03  0.00
  YS02006556YS02006558    1.00   0.00  0.00  0.00  1.00  0.00  0.00  0.00  0.00  0.00
  YS02006558YS02006561    1.00   0.17  0.00  0.00  0.07  0.76  0.00  0.00  0.18  0.00
  YS02006561YS02001783    1.00   0.17  0.00  0.00  0.10  0.73  0.00  0.00  0.67  0.00
  YS02163301YS02001633    1.00   0.00  0.15  0.00  0.85  0.00  0.00  0.00  0.00  0.00
  YS02163601YS02164001    1.00   0.00  0.08  0.00  0.92  0.00  0.00  0.00  0.00  0.00
  YS02164001YS02001641    1.00   0.01  0.07  0.00  0.92  0.00  0.00  0.00  0.05  0.00
  
  
  *************************
  Conduit Surcharge Summary
  *************************
  
  ----------------------------------------------------------------------------
                                                           Hours        Hours 
                         --------- Hours Full --------   Above Full   Capacity
  Conduit                Both Ends  Upstream  Dnstream   Normal Flow   Limited
  ----------------------------------------------------------------------------
  WS02003072WS02003073        0.01      0.01      0.01      1.80         0.01
  WS02004404WS02004405        0.01      0.01      0.01      3.69         0.01
  WS02004405WS02004406        0.01      0.01      0.01      1.00         0.01
  WS02006109WS02006110        1.01      1.01      2.35      1.20         0.01
  WS02006110WS02006113        0.01      0.01      2.34      0.01         0.01
  WS02006111WS02006112        0.01      0.01      2.55      0.01         0.01
  WS02006112WS02006115        0.01      0.01      1.13      0.01         0.01
  WS02006228WS02006109        2.33      2.35      2.33      2.74         2.32
  WS02006229WS02006228        2.32      2.33      2.32      2.50         2.30
  WS02006230WS02006229        2.40      2.47      2.40      4.27         2.40
  WS02006231WS02006230        1.03      1.03      1.33      3.92         0.01
  WS02006232WS02006231        1.24      1.24      2.36      1.35         0.01
  WS02006234WS02006232        2.26      2.26      2.36      1.32         1.30
  WS02006235WS02006234        1.76      1.77      2.26      3.78         0.03
  WS02006238WS02006235        2.30      2.30      2.36      0.01         0.01
  WS02006239WS02006238        2.33      2.34      2.33      2.36         2.07
  WS02006240WS02006239        2.30      2.33      2.31      2.36         1.95
  WS02006242WS02006240        2.33      2.33      2.35      2.48         0.01
  WS02006243WS02006242        2.32      2.32      2.34      0.01         0.08
  WS02006245WS02006243        2.32      2.32      2.32      1.31         1.31
  WS02006247WS02006245        2.32      2.32      2.32      3.60         2.30
  WS02006248WS02006247        2.31      2.31      2.32      0.01         0.07
  WS02006249WS02006248        2.31      2.31      2.31      3.57         0.01
  WS02006251WS02006249        2.31      2.31      2.31      2.41         2.21
  WS02006252WS02006251        2.47      2.47      2.47      2.47         0.01
  WS02006256WS02006235        3.78      3.83      6.17      1.65         0.01
  YS02001580YS02001583        0.78      0.78      0.85      0.01         0.01
  YS02001583YS02001586        0.79      0.79      0.96      0.01         0.01
  YS02001586YS02001590        0.97      0.97      1.05      0.01         0.01
  YS02001590YS02001593        1.05      1.05      1.07      1.11         0.01
  YS02001593YS02001596        1.06      1.06      1.17      0.01         0.01
  YS02001596YS02001600        1.21      1.21      1.32      0.01         0.01
  YS02001600YS02001601        1.39      1.39      1.65      0.01         0.01
  YS02001601YS02001602        1.58      1.58      1.68      1.31         0.01
  YS02001602YS02001605        1.53      1.53      1.58      2.32         0.01
  YS02001605YS02001607        1.49      1.53      1.49      1.63         1.49
  YS02001607YS02001610        1.05      1.05      1.08      0.01         0.01
  YS02001610YS02001613        1.05      1.05      1.08      0.01         0.01
  YS02001613YS02001616        1.01      1.01      1.05      0.01         0.01
  YS02001616YS02001619        0.99      0.99      1.01      0.01         0.04
  YS02001619YS02001622        0.99      0.99      0.99      1.00         0.90
  YS02001622YS02001625        0.99      0.99      1.18      0.01         0.01
  YS02001625YS02001629        0.93      0.93      1.18      0.01         0.01
  YS02001629YS02163301        1.19      1.19      1.20      0.01         0.11
  YS02001633YS02163601        1.22      1.22      1.26      0.27         0.27
  YS02001641YS02001644        1.16      1.18      1.16      1.70         1.14
  YS02001644YS02001647        0.95      0.95      1.16      0.03         0.01
  YS02001647YS02001649        0.95      0.95      1.12      0.01         0.01
  YS02001649YS02001757        1.11      1.12      1.20      0.04         0.04
  YS02001652YS02001649        0.92      0.92      1.12      0.01         0.01
  YS02001655YS02001652        0.65      0.65      0.89      0.01         0.01
  YS02001658YS02001655        0.33      0.33      0.66      0.01         0.01
  YS02001661YS02001658        0.06      0.06      0.33      0.01         0.01
  YS02001664YS02001661        0.01      0.01      0.13      0.01         0.01
  YS02001745YS02001748        0.01      0.01      0.24      0.01         0.01
  YS02001748YS02001751        0.29      0.29      0.47      0.01         0.01
  YS02001751YS02001754        0.47      0.47      0.78      0.01         0.01
  YS02001754YS02001757        0.84      0.84      1.20      0.01         0.01
  YS02001757CaochengTiaoxuchi        1.16      1.20      2.31      0.43         0.37
  YS02001759YS02001757        1.09      1.09      1.20      0.03         0.04
  YS02001762YS02001759        1.05      1.05      1.09      0.01         0.02
  YS02001765YS02001762        1.00      1.00      1.05      0.01         0.01
  YS02001767YS02001765        0.96      0.96      1.00      0.01         0.02
  YS02001770YS02001767        0.96      0.96      0.96      0.66         0.63
  YS02001774YS02001770        0.92      0.92      1.03      0.01         0.01
  YS02001779YS02001774        0.75      0.75      1.03      0.01         0.01
  YS02001783YS02001784        0.64      0.67      0.64      0.81         0.64
  YS02001784YS02001785        0.53      0.64      0.53      1.09         0.53
  YS02001786YS02001788        0.01      0.53      0.01      0.92         0.01
  YS02001790YS02001791        0.01      0.01      0.01      0.63         0.01
  YS02001793JiankangQianchi        0.01      0.01      7.43      0.01         0.01
  YS02001882YS02001884        0.61      0.61      0.62      0.01         0.01
  YS02001884YS02001887        0.64      0.64      0.66      0.01         0.01
  YS02001887YS02001890        0.67      0.67      0.68      0.17         0.01
  YS02001890YS02001895        0.60      0.60      0.70      0.01         0.01
  YS02001895YS02001898        0.59      0.59      0.60      0.01         0.01
  YS02001898YS02001901        0.60      0.60      0.64      0.01         0.01
  YS02001901YS02001904        0.63      0.63      0.64      0.01         0.01
  YS02001904YS02001907        0.63      0.63      0.90      0.01         0.01
  YS02001907YS02006553        1.11      1.11      1.18      0.01         0.01
  YS02001910YS02001907        0.70      0.70      0.87      0.01         0.01
  YS02001915YS02001910        0.61      0.61      0.70      0.01         0.01
  YS02001918YS02001915        0.52      0.52      0.61      0.01         0.01
  YS02001920YS02001918        0.52      0.52      0.53      0.01         0.01
  YS02001923YS02001920        0.47      0.47      0.53      0.01         0.01
  YS02001926YS02001923        0.17      0.17      0.20      0.01         0.01
  YS02001929YS02001926        0.01      0.01      0.20      0.01         0.01
  YS02006553YS02006556        0.79      0.79      0.89      0.01         0.01
  YS02006556YS02006558        0.84      0.84      0.93      0.01         0.01
  YS02006558YS02006561        0.56      0.78      0.56      1.03         0.56
  YS02006561YS02001783        0.48      0.48      0.67      0.01         0.01
  YS02163301YS02001633        1.20      1.20      1.23      0.01         0.01
  YS02163601YS02164001        1.18      1.18      1.26      0.03         0.01
  YS02164001YS02001641        1.18      1.18      1.18      0.78         0.76
  
  
  ***************
  Pumping Summary
  ***************
  
  ---------------------------------------------------------------------------------------------------------
                                                  Min       Avg       Max     Total     Power    % Time Off
                        Percent   Number of      Flow      Flow      Flow    Volume     Usage    Pump Curve
  Pump                 Utilized   Start-Ups       LPS       LPS       LPS  10^6 ltr     Kw-hr    Low   High
  ---------------------------------------------------------------------------------------------------------
  CC-R1                   23.51           6      0.00    683.00    683.00     4.624     87.61    0.0   11.9
  CC-R2                   18.81           6      0.00    683.00    683.00     3.699     70.45    0.0   17.0
  CC-S1                   44.92           9      0.00    200.00    200.00     2.587     14.45    0.0    0.0
  CC-S2                   31.87           5      0.00    200.00    200.00     1.836      9.95    0.0    0.0
  JK-R1                    9.12          13      0.00   1000.00   1000.00     2.626     30.94    0.0    0.0
  JK-R2                    1.26           4      0.00   1000.00   1000.00     0.364      3.05    0.0    0.0
  JK-S                    20.33          30      0.00    300.00    300.00     1.756     24.00    0.0    0.0
  

  Analysis begun on:  Mon Feb 24 09:50:58 2025
  Analysis ended on:  Mon Feb 24 09:51:00 2025
  Total elapsed time: 00:00:02