
  EPA STORM WATER MANAGEMENT MODEL - VERSION 5.2 (Build 5.2.4)
  PYSWMM TOOLKIT API - VERSION v1.0 (2023-11-27)
  ------------------------------------------------------------

  WARNING 04: minimum elevation drop used for Conduit WS02004404WS02004405
  WARNING 03: negative offset ignored for Link YS02001904YS02001907
  
  ****************
  Analysis Options
  ****************
  Flow Units ............... LPS
  Process Models:
    Rainfall/Runoff ........ YES
    RDII ................... NO
    Snowmelt ............... NO
    Groundwater ............ NO
    Flow Routing ........... YES
    Ponding Allowed ........ NO
    Water Quality .......... NO
  Infiltration Method ...... HORTON
  Flow Routing Method ...... DYNWAVE
  Surcharge Method ......... EXTRAN
  Starting Date ............ 08/28/2015 08:00:00
  Ending Date .............. 08/28/2015 16:00:00
  Antecedent Dry Days ...... 8.0
  Report Time Step ......... 00:01:00
  Wet Time Step ............ 00:01:00
  Dry Time Step ............ 00:01:00
  Routing Time Step ........ 30.00 sec
  Variable Time Step ....... YES
  Maximum Trials ........... 8
  Number of Threads ........ 4
  Head Tolerance ........... 0.001500 m
  
  
  **************************        Volume         Depth
  Runoff Quantity Continuity     hectare-m            mm
  **************************     ---------       -------
  Total Precipitation ......         2.344        70.678
  Evaporation Loss .........         0.000         0.000
  Infiltration Loss ........         0.099         2.996
  Surface Runoff ...........         2.213        66.706
  Final Storage ............         0.033         0.994
  Continuity Error (%) .....        -0.027
  
  
  **************************        Volume        Volume
  Flow Routing Continuity        hectare-m      10^6 ltr
  **************************     ---------     ---------
  Dry Weather Inflow .......         0.025         0.251
  Wet Weather Inflow .......         2.213        22.126
  Groundwater Inflow .......         0.000         0.000
  RDII Inflow ..............         0.000         0.000
  External Inflow ..........         0.083         0.834
  External Outflow .........         1.566        15.656
  Flooding Loss ............         0.824         8.244
  Evaporation Loss .........         0.000         0.000
  Exfiltration Loss ........         0.000         0.000
  Initial Stored Volume ....         0.243         2.431
  Final Stored Volume ......         0.182         1.817
  Continuity Error (%) .....        -0.295
  
  
  *************************
  Highest Continuity Errors
  *************************
  Node YS02001884 (5.07%)
  Node YS02001583 (-4.84%)
  Node WS02006256 (-1.34%)
  
  
  ***************************
  Time-Step Critical Elements
  ***************************
  Link WS02006252WS02006251 (45.79%)
  Link WS02004404WS02004405 (13.10%)
  Link WS02006238WS02006235 (12.07%)
  Link WS02003066WSF200 (7.11%)
  Link YS02001791YS02001793 (6.83%)
  
  
  ********************************
  Highest Flow Instability Indexes
  ********************************
  Link WS02006113WS02006111 (44)
  Link WS02006111WS02006112 (22)
  Link WS02004404WS02004405 (18)
  Link WS02004403WS02004404 (16)
  Link WS02006252WS02006251 (15)
  
  
  *********************************
  Most Frequent Nonconverging Nodes
  *********************************
  Node CC-1 (11.81%)
  Node CC-2 (11.81%)
  Node JK-1 (11.81%)
  Node JK-2 (11.81%)
  Node WSC (11.81%)
  
  
  *************************
  Routing Time Step Summary
  *************************
  Minimum Time Step           :     0.01 sec
  Average Time Step           :     1.97 sec
  Maximum Time Step           :     7.04 sec
  % of Time in Steady State   :     0.00
  Average Iterations per Step :     3.11
  % of Steps Not Converging   :    11.81
  Time Step Frequencies       :
     30.000 - 13.228 sec      :     0.00 %
     13.228 -  5.833 sec      :     7.39 %
      5.833 -  2.572 sec      :    20.11 %
      2.572 -  1.134 sec      :    21.01 %
      1.134 -  0.500 sec      :    51.49 %
  
  
  ***************************
  Subcatchment Runoff Summary
  ***************************
  
  ------------------------------------------------------------------------------------------------------------------------------
                            Total      Total      Total      Total     Imperv       Perv      Total       Total     Peak  Runoff
                           Precip      Runon       Evap      Infil     Runoff     Runoff     Runoff      Runoff   Runoff   Coeff
  Subcatchment                 mm         mm         mm         mm         mm         mm         mm    10^6 ltr      LPS
  ------------------------------------------------------------------------------------------------------------------------------
  sub60                     70.68       0.00       0.00       1.80      61.00       6.69      67.69        0.89   677.54   0.958
  sub61                     70.68       0.00       0.00       2.61      57.54       9.41      66.95        1.23   940.04   0.947
  sub62                     70.68       0.00       0.00       1.20      63.74       4.46      68.20        1.87  1323.76   0.965
  sub63                     70.68       0.00       0.00       4.81      49.22      15.69      64.91        1.47  1057.63   0.918
  sub64                     70.68       0.00       0.00       2.43      58.87       8.17      67.05        1.61  1073.88   0.949
  sub65                     70.68       0.00       0.00       2.10      60.24       7.09      67.33        1.85  1194.30   0.953
  sub66                     70.68       0.00       0.00       5.98      49.11      14.52      63.63        2.97  1556.00   0.900
  sub67                     70.68       0.00       0.00       1.16      63.79       4.50      68.29        1.27  1027.58   0.966
  sub68                     70.68       0.00       0.00       2.16      59.60       7.74      67.34        1.85  1359.47   0.953
  sub69                     70.68       0.00       0.00       1.92      59.97       8.68      68.65        2.54  1587.38   0.971
  sub70                     70.68       0.00       0.00       6.46      46.49      17.58      64.06        1.85   870.34   0.906
  sub71                     70.68       0.00       0.00       1.23      63.70       4.43      68.13        1.78  1157.70   0.964
  sub72                     70.68       0.00       0.00       1.09      64.33       3.86      68.19        0.94   558.97   0.965
  
  
  ******************
  Node Depth Summary
  ******************
  
  ---------------------------------------------------------------------------------
                                 Average  Maximum  Maximum  Time of Max    Reported
                                   Depth    Depth      HGL   Occurrence   Max Depth
  Node                 Type       Meters   Meters   Meters  days hr:min      Meters
  ---------------------------------------------------------------------------------
  WS02003060           JUNCTION     0.23     0.38     5.31     0  02:21        0.38
  WS02003066           JUNCTION     0.19     0.30     5.85     0  02:38        0.30
  WS02003067           JUNCTION     0.50     0.70     6.02     0  02:37        0.70
  WS02003069           JUNCTION     0.26     0.43     5.01     0  02:39        0.43
  WS02003072           JUNCTION     0.32     0.50     4.87     0  02:39        0.50
  WS02003073           JUNCTION     0.18     0.30     4.36     0  02:40        0.30
  WS02004401           JUNCTION     0.59     0.87     6.87     0  02:35        0.87
  WS02004402           JUNCTION     0.62     0.90     6.86     0  02:35        0.90
  WS02004403           JUNCTION     0.65     0.92     6.85     0  02:35        0.92
  WS02004404           JUNCTION     0.72     1.03     6.88     0  02:35        1.00
  WS02004405           JUNCTION     0.71     0.97     6.82     0  02:36        0.96
  WS02004406           JUNCTION     0.72     0.96     6.79     0  02:35        0.96
  WS02004407           JUNCTION     0.17     0.30     6.61     0  02:36        0.30
  WS02004409           JUNCTION     0.39     0.67     6.44     0  02:36        0.67
  WS02004410           JUNCTION     0.41     0.68     6.40     0  02:37        0.68
  WS02004411           JUNCTION     0.43     0.69     6.37     0  02:37        0.69
  WS02004412           JUNCTION     0.46     0.70     6.34     0  02:37        0.70
  WS02004413           JUNCTION     0.62     0.86     6.33     0  02:37        0.86
  WS02006109           JUNCTION     0.64     1.45     8.07     0  02:49        1.28
  WS02006110           JUNCTION     0.65     1.52     8.10     0  02:49        0.95
  WS02006111           JUNCTION     0.17     0.29     6.99     0  02:52        0.29
  WS02006112           JUNCTION     0.74     1.09     6.98     0  02:34        1.08
  WS02006113           JUNCTION     0.27     0.46     7.35     0  03:29        0.46
  WS02006115           JUNCTION     0.47     0.77     6.91     0  02:35        0.77
  WS02006116           JUNCTION     0.56     0.85     6.89     0  02:35        0.85
  WS02006228           JUNCTION     0.63     1.55     8.20     0  02:26        1.55
  WS02006229           JUNCTION     0.60     1.62     8.31     0  02:26        1.62
  WS02006230           JUNCTION     0.60     1.76     8.51     0  02:26        1.76
  WS02006231           JUNCTION     0.42     1.46     8.58     0  02:26        1.46
  WS02006232           JUNCTION     0.55     1.56     8.60     0  02:26        1.56
  WS02006234           JUNCTION     0.47     1.75     8.90     0  03:06        1.75
  WS02006235           JUNCTION     0.51     1.68     8.85     0  03:06        1.68
  WS02006238           JUNCTION     0.54     1.68     8.82     0  03:06        1.68
  WS02006239           JUNCTION     0.50     1.58     8.78     0  03:06        1.56
  WS02006240           JUNCTION     0.47     1.47     8.76     0  03:06        1.46
  WS02006242           JUNCTION     0.54     1.50     8.77     0  02:00        1.36
  WS02006243           JUNCTION     0.44     1.34     8.76     0  02:00        1.23
  WS02006245           JUNCTION     0.45     1.27     8.75     0  02:10        1.19
  WS02006247           JUNCTION     0.47     1.23     8.73     0  02:10        1.19
  WS02006248           JUNCTION     0.43     1.10     8.69     0  02:00        1.10
  WS02006249           JUNCTION     0.47     1.09     8.69     0  01:58        1.09
  WS02006251           JUNCTION     0.46     1.37     9.04     0  01:59        1.28
  WS02006252           JUNCTION     0.34     1.50     9.74     0  00:00        0.84
  WS02006256           JUNCTION     0.99     2.35     9.28     0  00:00        2.35
  WSF200               JUNCTION     0.17     0.29     5.52     0  02:20        0.29
  YS02001580           JUNCTION     0.09     1.05     9.59     0  01:53        0.77
  YS02001583           JUNCTION     0.12     1.14     9.64     0  01:53        0.82
  YS02001586           JUNCTION     0.19     1.13     9.30     0  01:53        1.13
  YS02001590           JUNCTION     0.29     1.40     9.26     0  01:51        1.37
  YS02001593           JUNCTION     0.22     1.31     9.18     0  01:53        1.28
  YS02001596           JUNCTION     0.30     1.68     9.10     0  01:53        1.65
  YS02001600           JUNCTION     0.35     1.87     9.00     0  01:53        1.86
  YS02001601           JUNCTION     0.54     2.06     8.90     0  01:51        2.06
  YS02001602           JUNCTION     0.46     1.87     8.77     0  01:53        1.87
  YS02001605           JUNCTION     0.42     1.78     8.68     0  01:53        1.78
  YS02001607           JUNCTION     0.42     1.68     8.53     0  01:53        1.65
  YS02001610           JUNCTION     0.47     1.68     8.48     0  01:53        1.68
  YS02001613           JUNCTION     0.43     1.68     8.52     0  02:02        1.68
  YS02001616           JUNCTION     0.36     1.61     8.52     0  01:53        1.61
  YS02001619           JUNCTION     0.33     1.61     8.54     0  01:53        1.61
  YS02001622           JUNCTION     0.32     1.62     8.52     0  01:53        1.58
  YS02001625           JUNCTION     0.59     1.78     8.38     0  01:53        1.78
  YS02001629           JUNCTION     0.44     1.85     8.40     0  01:53        1.85
  YS02001633           JUNCTION     0.52     2.03     8.49     0  01:59        2.03
  YS02001641           JUNCTION     0.51     1.96     8.39     0  02:00        1.95
  YS02001644           JUNCTION     0.50     1.92     8.35     0  01:57        1.92
  YS02001647           JUNCTION     0.30     1.83     8.44     0  01:57        1.76
  YS02001649           JUNCTION     0.34     2.05     8.44     0  01:57        2.00
  YS02001652           JUNCTION     0.24     1.97     8.57     0  01:57        1.86
  YS02001655           JUNCTION     0.18     1.87     8.72     0  01:57        1.67
  YS02001658           JUNCTION     0.13     1.85     9.00     0  01:57        1.45
  YS02001661           JUNCTION     0.16     1.53     8.93     0  01:58        1.26
  YS02001664           JUNCTION     0.05     0.76     8.68     0  02:01        0.76
  YS02001745           JUNCTION     0.07     0.95     8.46     0  02:01        0.93
  YS02001748           JUNCTION     0.13     1.80     8.87     0  01:57        1.36
  YS02001751           JUNCTION     0.16     1.75     8.63     0  01:57        1.52
  YS02001754           JUNCTION     0.21     1.82     8.43     0  01:57        1.77
  YS02001757           JUNCTION     0.37     2.08     8.34     0  02:01        2.08
  YS02001759           JUNCTION     0.31     2.08     8.44     0  02:01        2.08
  YS02001762           JUNCTION     0.30     2.04     8.44     0  02:00        2.03
  YS02001765           JUNCTION     0.28     2.00     8.45     0  02:00        1.98
  YS02001767           JUNCTION     0.27     1.96     8.45     0  02:01        1.95
  YS02001770           JUNCTION     0.28     1.95     8.44     0  01:57        1.95
  YS02001774           JUNCTION     0.35     2.01     8.43     0  01:57        2.00
  YS02001779           JUNCTION     0.19     1.68     8.37     0  01:56        1.68
  YS02001783           JUNCTION     0.23     1.33     7.47     0  01:56        1.24
  YS02001784           JUNCTION     0.24     1.18     7.25     0  01:56        1.13
  YS02001786           JUNCTION     0.20     0.91     6.94     0  01:56        0.88
  YS02001788           JUNCTION     0.14     0.63     6.60     0  02:00        0.63
  YS02001790           JUNCTION     0.17     0.73     6.38     0  02:00        0.73
  YS02001791           JUNCTION     0.11     0.44     5.91     0  01:58        0.43
  YS02001793           JUNCTION     0.06     0.30     5.13     0  02:00        0.29
  YS02001882           JUNCTION     0.29     1.68     8.40     0  02:00        1.68
  YS02001884           JUNCTION     0.38     1.78     8.39     0  02:00        1.78
  YS02001887           JUNCTION     0.46     1.86     8.40     0  02:00        1.86
  YS02001890           JUNCTION     0.49     1.81     8.32     0  01:56        1.81
  YS02001895           JUNCTION     0.26     1.57     8.32     0  02:00        1.57
  YS02001898           JUNCTION     0.27     1.57     8.30     0  01:56        1.56
  YS02001901           JUNCTION     0.38     1.68     8.29     0  01:59        1.67
  YS02001904           JUNCTION     0.36     1.64     8.27     0  02:04        1.64
  YS02001907           JUNCTION     0.69     1.96     8.25     0  01:56        1.96
  YS02001910           JUNCTION     0.49     1.98     8.49     0  01:59        1.97
  YS02001915           JUNCTION     0.29     1.95     8.67     0  01:59        1.92
  YS02001918           JUNCTION     0.16     1.81     8.88     0  01:56        1.81
  YS02001920           JUNCTION     0.24     2.14     9.15     0  01:56        2.02
  YS02001923           JUNCTION     0.12     2.03     9.29     0  01:56        1.92
  YS02001926           JUNCTION     0.16     1.90     9.35     0  01:56        1.90
  YS02001929           JUNCTION     0.09     1.78     9.47     0  01:56        1.68
  YS02006553           JUNCTION     0.69     1.99     8.27     0  02:00        1.99
  YS02006556           JUNCTION     0.66     1.99     8.30     0  01:59        1.98
  YS02006558           JUNCTION     0.71     2.05     8.32     0  01:59        2.04
  YS02006561           JUNCTION     0.14     1.06     7.72     0  01:56        0.91
  YS02163301           JUNCTION     0.46     1.93     8.45     0  02:02        1.93
  YS02163601           JUNCTION     0.56     2.04     8.44     0  02:00        2.04
  YS02164001           JUNCTION     0.49     1.96     8.41     0  02:00        1.95
  CC-1                 OUTFALL      0.00     0.00     0.00     0  00:00        0.00
  CC-2                 OUTFALL      0.00     0.00     0.00     0  00:00        0.00
  JK-1                 OUTFALL      0.00     0.00     0.00     0  00:00        0.00
  JK-2                 OUTFALL      0.00     0.00     0.00     0  00:00        0.00
  WSC                  OUTFALL      0.18     0.30     0.97     0  02:40        0.30
  CC-storage           STORAGE      0.94     1.76     7.26     0  02:30        1.76
  JK-storage           STORAGE      2.75     4.24     5.04     0  02:05        4.18
  
  
  *******************
  Node Inflow Summary
  *******************
  
  -------------------------------------------------------------------------------------------------
                                  Maximum  Maximum                  Lateral       Total        Flow
                                  Lateral    Total  Time of Max      Inflow      Inflow     Balance
                                   Inflow   Inflow   Occurrence      Volume      Volume       Error
  Node                 Type           LPS      LPS  days hr:min    10^6 ltr    10^6 ltr     Percent
  -------------------------------------------------------------------------------------------------
  WS02003060           JUNCTION     16.53   551.25     0  02:38       0.476        5.49       0.042
  WS02003066           JUNCTION      0.00   534.33     0  02:38           0        5.02       0.029
  WS02003067           JUNCTION      0.00   534.21     0  02:37           0        5.02       0.085
  WS02003069           JUNCTION      0.32   551.28     0  02:38     0.00922         5.5       0.075
  WS02003072           JUNCTION      0.00   550.57     0  02:39           0        5.49       0.133
  WS02003073           JUNCTION      1.82   551.88     0  02:39      0.0524        5.54       0.106
  WS02004401           JUNCTION      0.00   538.43     0  02:35           0        5.12       0.204
  WS02004402           JUNCTION      0.00   538.17     0  02:18           0        5.11       0.207
  WS02004403           JUNCTION      0.00   537.95     0  02:17           0         5.1       0.201
  WS02004404           JUNCTION      0.16   554.22     0  02:35     0.00467        5.09       0.185
  WS02004405           JUNCTION      0.04   596.97     0  02:20      0.0011        5.09       0.181
  WS02004406           JUNCTION      0.00   544.42     0  02:35           0        5.08       0.414
  WS02004407           JUNCTION      0.00   538.21     0  02:36           0        5.06       0.026
  WS02004409           JUNCTION      0.00   537.28     0  02:36           0        5.05       0.058
  WS02004410           JUNCTION      0.00   536.35     0  02:36           0        5.05       0.092
  WS02004411           JUNCTION      0.00   535.67     0  02:37           0        5.05       0.116
  WS02004412           JUNCTION      0.00   535.08     0  02:37           0        5.04       0.154
  WS02004413           JUNCTION      0.00   534.80     0  02:37           0        5.03       0.270
  WS02006109           JUNCTION      1.23   573.27     0  02:26      0.0354        5.17       0.132
  WS02006110           JUNCTION      0.00   576.94     0  02:26           0        5.16       0.141
  WS02006111           JUNCTION      0.00   561.89     0  02:44           0        5.15       0.020
  WS02006112           JUNCTION      0.00   542.45     0  02:52           0        5.15       0.345
  WS02006113           JUNCTION      0.00   572.84     0  02:26           0        5.15       0.040
  WS02006115           JUNCTION      0.00   553.04     0  02:35           0        5.13       0.134
  WS02006116           JUNCTION      0.00   538.63     0  02:30           0        5.13       0.088
  WS02006228           JUNCTION      0.00   569.10     0  02:26           0        5.13       0.039
  WS02006229           JUNCTION      0.00   568.74     0  02:26           0        5.14       0.119
  WS02006230           JUNCTION     10.28   591.90     0  02:05       0.296        5.14       0.073
  WS02006231           JUNCTION      0.00   605.54     0  03:06           0        4.84      -0.074
  WS02006232           JUNCTION      0.00   602.93     0  03:06           0        4.86       0.295
  WS02006234           JUNCTION      0.00   589.96     0  03:06           0        4.84      -0.302
  WS02006235           JUNCTION      0.00   568.97     0  03:06           0        4.94       0.273
  WS02006238           JUNCTION      0.00   428.93     0  03:25           0        4.03      -0.168
  WS02006239           JUNCTION      0.00   427.59     0  03:25           0        3.97      -0.146
  WS02006240           JUNCTION      0.00   426.71     0  03:25           0        3.93      -0.053
  WS02006242           JUNCTION      0.00   426.10     0  03:25           0        3.91       0.006
  WS02006243           JUNCTION      0.00   425.45     0  03:25           0         3.9      -0.101
  WS02006245           JUNCTION      0.00   424.27     0  03:25           0        3.91       0.347
  WS02006247           JUNCTION      0.00   423.37     0  03:25           0        3.91       0.037
  WS02006248           JUNCTION      0.00   422.08     0  03:25           0        3.91       0.104
  WS02006249           JUNCTION      0.00   459.02     0  00:00           0        4.14       0.320
  WS02006251           JUNCTION      0.08   407.75     0  03:06     0.00222        4.14      -0.000
  WS02006252           JUNCTION      0.00   400.00     0  00:00           0        4.13      -0.108
  WS02006256           JUNCTION      0.00   300.00     0  00:00           0        1.36      -1.326
  WSF200               JUNCTION      0.00   534.43     0  02:38           0        5.01       0.010
  YS02001580           JUNCTION      0.00   137.18     0  01:53           0      0.0044      -0.601
  YS02001583           JUNCTION      0.00   179.76     0  01:53           0      0.0155      -4.619
  YS02001586           JUNCTION    870.34   870.34     0  02:04        1.85        1.86       0.069
  YS02001590           JUNCTION      0.00   318.07     0  02:06           0        1.36      -0.032
  YS02001593           JUNCTION      0.00   318.10     0  02:00           0        1.36       0.004
  YS02001596           JUNCTION      0.00   317.95     0  02:11           0        1.36      -0.007
  YS02001600           JUNCTION      0.00   318.09     0  02:01           0        1.36       0.009
  YS02001601           JUNCTION   1587.38  1904.99     0  02:03        2.54         3.9       0.016
  YS02001602           JUNCTION      0.00   523.38     0  01:53           0        2.26       0.020
  YS02001605           JUNCTION      0.00   523.28     0  01:53           0        2.13       0.024
  YS02001607           JUNCTION      0.00   522.95     0  01:53           0        2.13       0.089
  YS02001610           JUNCTION      0.00   878.21     0  02:03           0        2.48       0.092
  YS02001613           JUNCTION      0.00   542.47     0  01:52           0        1.96       0.084
  YS02001616           JUNCTION      0.00   542.44     0  01:52           0        1.96       0.016
  YS02001619           JUNCTION   1556.00  1556.00     0  02:03        2.97        4.57      -0.003
  YS02001622           JUNCTION      0.00  1021.65     0  02:02           0        4.22      -0.000
  YS02001625           JUNCTION      0.00  1428.69     0  02:04           0        4.49       0.202
  YS02001629           JUNCTION      0.00   925.46     0  01:53           0        3.41       0.015
  YS02001633           JUNCTION   1194.50  1367.28     0  01:55        1.86        4.91       0.069
  YS02001641           JUNCTION      0.00  1361.40     0  01:55           0        4.56       0.063
  YS02001644           JUNCTION   1073.92  1776.21     0  01:55        1.61        6.17       0.053
  YS02001647           JUNCTION      0.00  1777.96     0  01:55           0         5.4       0.010
  YS02001649           JUNCTION      0.00  2019.52     0  01:55           0        6.88       0.004
  YS02001652           JUNCTION      0.00  1090.28     0  02:01           0        1.48      -0.086
  YS02001655           JUNCTION      0.15  1090.28     0  02:01     0.00443        1.48       0.026
  YS02001658           JUNCTION      0.00  1090.17     0  02:01           0        1.47      -0.023
  YS02001661           JUNCTION      0.00  1088.28     0  02:01           0        1.47       0.006
  YS02001664           JUNCTION   1057.63  1057.63     0  02:02        1.47        1.47      -0.014
  YS02001745           JUNCTION    677.55   677.55     0  02:02       0.889        0.89       0.159
  YS02001748           JUNCTION      0.04   707.03     0  02:01      0.0013       0.891      -0.278
  YS02001751           JUNCTION      0.01   707.09     0  02:01    0.000317         0.9       0.095
  YS02001754           JUNCTION      0.26   707.42     0  02:01     0.00749       0.914      -0.170
  YS02001757           JUNCTION      0.00  3288.08     0  01:58           0        10.5       0.021
  YS02001759           JUNCTION    940.08  1394.68     0  02:00        1.23        2.75      -0.009
  YS02001762           JUNCTION      0.00   737.89     0  01:57           0        1.52       0.001
  YS02001765           JUNCTION      0.00   741.81     0  01:57           0        1.52       0.011
  YS02001767           JUNCTION      0.54   743.86     0  01:57      0.0154        1.52       0.001
  YS02001770           JUNCTION   1323.91  1323.91     0  02:02        1.87        1.91      -0.028
  YS02001774           JUNCTION      0.00   841.25     0  02:02           0       0.425       0.270
  YS02001779           JUNCTION      0.01   841.16     0  02:02    0.000144       0.383      -0.140
  YS02001783           JUNCTION      0.00  1168.85     0  02:00           0        4.06       0.004
  YS02001784           JUNCTION      1.06  1170.33     0  02:00      0.0305        4.09       0.013
  YS02001786           JUNCTION      0.06  1170.02     0  01:59     0.00162        4.09       0.018
  YS02001788           JUNCTION      0.07  1170.28     0  02:00     0.00204        4.09       0.007
  YS02001790           JUNCTION      0.15  1182.95     0  02:00     0.00446         4.1       0.022
  YS02001791           JUNCTION      0.00  1303.17     0  02:00           0         4.1      -0.029
  YS02001793           JUNCTION      0.00  1260.44     0  02:00           0         4.1       0.004
  YS02001882           JUNCTION      0.00    68.80     0  01:54           0      0.0125       4.480
  YS02001884           JUNCTION      0.00    75.91     0  01:54           0      0.0484       5.341
  YS02001887           JUNCTION   1028.03  1029.40     0  02:01        1.28        1.32       0.327
  YS02001890           JUNCTION      0.00  1029.76     0  02:01           0        1.28       0.393
  YS02001895           JUNCTION      0.00   517.91     0  02:05           0        1.09       0.134
  YS02001898           JUNCTION      0.00   517.71     0  02:05           0        1.09       0.015
  YS02001901           JUNCTION      0.00   517.89     0  02:05           0        1.09       0.299
  YS02001904           JUNCTION      0.00   517.68     0  02:05           0         1.1       0.241
  YS02001907           JUNCTION      0.00  2428.28     0  02:02           0        3.93       0.445
  YS02001910           JUNCTION      0.00  1726.44     0  02:02           0         2.8       0.256
  YS02001915           JUNCTION   1157.72  1725.78     0  02:02        1.78        2.84       0.050
  YS02001918           JUNCTION      0.00   569.63     0  02:02           0        1.09       0.023
  YS02001920           JUNCTION      2.87   569.53     0  02:02      0.0827        1.07       0.082
  YS02001923           JUNCTION      0.04   564.15     0  02:02     0.00109       0.974      -0.049
  YS02001926           JUNCTION      0.05   645.42     0  01:56      0.0015       0.954      -0.063
  YS02001929           JUNCTION    558.97   558.97     0  02:03       0.938        0.94      -0.025
  YS02006553           JUNCTION      0.00   800.94     0  02:21           0         2.3       0.514
  YS02006556           JUNCTION      0.00   801.78     0  02:21           0        2.31       0.339
  YS02006558           JUNCTION   1360.35  1360.35     0  02:02        1.88        4.13       0.081
  YS02006561           JUNCTION      0.00  1170.03     0  01:56           0        4.06       0.001
  YS02163301           JUNCTION      0.00   919.07     0  01:55           0        3.39       0.047
  YS02163601           JUNCTION      0.11  1366.12     0  01:55     0.00317        4.56       0.108
  YS02164001           JUNCTION      0.00  1364.67     0  01:55           0        4.56       0.047
  CC-1                 OUTFALL       0.00   683.00     0  00:00           0        4.16       0.000
  CC-2                 OUTFALL       0.00   683.00     0  00:00           0         3.1       0.000
  JK-1                 OUTFALL       0.00  1000.00     0  00:00           0        2.65       0.000
  JK-2                 OUTFALL       0.00  1000.00     0  00:00           0       0.215       0.000
  WSC                  OUTFALL       0.00   551.18     0  02:40           0        5.53       0.000
  CC-storage           STORAGE       0.00  3287.97     0  01:58           0        12.8      -0.224
  JK-storage           STORAGE       0.00  1230.21     0  02:14           0        4.25      -0.399
  
  
  **********************
  Node Surcharge Summary
  **********************
  
  Surcharging occurs when water rises above the top of the highest conduit.
  ---------------------------------------------------------------------
                                               Max. Height   Min. Depth
                                   Hours       Above Crown    Below Rim
  Node                 Type      Surcharged         Meters       Meters
  ---------------------------------------------------------------------
  WS02004404           JUNCTION        0.01          0.034        2.746
  WS02006109           JUNCTION        1.97          0.633        1.187
  WS02006110           JUNCTION        0.65          0.609        1.241
  WS02006112           JUNCTION        0.88          0.092        1.588
  WS02006228           JUNCTION        1.97          0.716        1.484
  WS02006229           JUNCTION        1.97          0.819        1.631
  WS02006230           JUNCTION        0.67          0.680        0.890
  WS02006231           JUNCTION        0.85          0.747        0.783
  WS02006232           JUNCTION        2.00          0.861        0.619
  WS02006234           JUNCTION        1.30          1.028        0.212
  WS02006235           JUNCTION        1.92          0.975        0.315
  WS02006238           JUNCTION        1.97          0.959        0.471
  WS02006239           JUNCTION        1.95          0.835        0.455
  WS02006240           JUNCTION        1.97          0.755        0.635
  WS02006242           JUNCTION        1.98          0.766        0.054
  WS02006243           JUNCTION        1.96          0.635        0.135
  WS02006245           JUNCTION        1.96          0.558        0.292
  WS02006247           JUNCTION        1.96          0.523        0.237
  WS02006248           JUNCTION        1.95          0.380        0.000
  WS02006249           JUNCTION        1.94          0.390        0.000
  WS02006251           JUNCTION        0.95          0.341        0.839
  WS02006252           JUNCTION        2.24          1.100        0.000
  WS02006256           JUNCTION        6.58          2.050        0.000
  YS02001580           JUNCTION        0.66          0.450        0.000
  YS02001583           JUNCTION        0.67          0.500        0.000
  YS02001586           JUNCTION        0.79          0.510        0.000
  YS02001590           JUNCTION        0.86          0.750        0.000
  YS02001593           JUNCTION        0.86          0.694        0.146
  YS02001596           JUNCTION        0.98          0.951        0.119
  YS02001600           JUNCTION        1.13          1.190        0.000
  YS02001601           JUNCTION        1.45          1.440        0.000
  YS02001602           JUNCTION        1.36          1.270        0.000
  YS02001605           JUNCTION        1.31          1.180        0.000
  YS02001607           JUNCTION        0.86          0.680        0.000
  YS02001610           JUNCTION        0.89          0.680        0.000
  YS02001613           JUNCTION        0.85          0.679        0.021
  YS02001616           JUNCTION        0.82          0.610        0.000
  YS02001619           JUNCTION        0.80          0.610        0.000
  YS02001622           JUNCTION        0.80          0.620        0.000
  YS02001625           JUNCTION        0.98          0.780        0.000
  YS02001629           JUNCTION        0.75          0.470        0.000
  YS02001633           JUNCTION        1.01          1.012        0.048
  YS02001641           JUNCTION        0.96          0.956        0.144
  YS02001644           JUNCTION        0.94          0.920        0.000
  YS02001647           JUNCTION        0.74          0.831        0.069
  YS02001649           JUNCTION        0.88          1.050        0.000
  YS02001652           JUNCTION        0.68          0.939        0.191
  YS02001655           JUNCTION        0.50          0.874        0.326
  YS02001658           JUNCTION        0.28          0.855        0.445
  YS02001661           JUNCTION        0.10          0.460        0.930
  YS02001748           JUNCTION        0.22          0.717        0.473
  YS02001751           JUNCTION        0.38          0.749        0.451
  YS02001754           JUNCTION        0.58          0.773        0.377
  YS02001757           JUNCTION        0.95          1.078        0.132
  YS02001759           JUNCTION        0.85          1.079        0.131
  YS02001762           JUNCTION        0.82          1.044        0.106
  YS02001765           JUNCTION        0.77          0.999        0.101
  YS02001767           JUNCTION        0.73          0.958        0.072
  YS02001770           JUNCTION        0.71          0.920        0.000
  YS02001774           JUNCTION        0.79          1.008        0.042
  YS02001779           JUNCTION        0.58          0.680        0.000
  YS02001783           JUNCTION        0.57          0.527        1.073
  YS02001784           JUNCTION        0.55          0.384        1.106
  YS02001786           JUNCTION        0.44          0.110        1.320
  YS02001882           JUNCTION        0.51          0.683        0.147
  YS02001884           JUNCTION        0.53          0.716        0.154
  YS02001887           JUNCTION        0.56          0.808        0.142
  YS02001890           JUNCTION        0.57          0.760        0.000
  YS02001895           JUNCTION        0.51          0.569        0.181
  YS02001898           JUNCTION        0.50          0.537        0.203
  YS02001901           JUNCTION        0.55          0.677        0.193
  YS02001904           JUNCTION        0.54          0.640        0.210
  YS02001907           JUNCTION        0.77          0.950        0.000
  YS02001910           JUNCTION        0.60          0.979        0.121
  YS02001915           JUNCTION        0.51          0.951        0.049
  YS02001918           JUNCTION        0.43          0.810        0.000
  YS02001920           JUNCTION        0.45          1.140        0.000
  YS02001923           JUNCTION        0.16          0.820        0.000
  YS02001926           JUNCTION        0.18          0.900        0.000
  YS02001929           JUNCTION        0.02          0.780        0.000
  YS02006553           JUNCTION        0.78          0.986        0.204
  YS02006556           JUNCTION        0.69          0.946        0.404
  YS02006558           JUNCTION        0.68          0.948        0.452
  YS02006561           JUNCTION        0.40          0.256        0.894
  YS02163301           JUNCTION        0.99          0.929        0.101
  YS02163601           JUNCTION        1.05          1.040        0.040
  YS02164001           JUNCTION        0.97          0.956        0.144
  
  
  *********************
  Node Flooding Summary
  *********************
  
  Flooding refers to all water that overflows a node, whether it ponds or not.
  --------------------------------------------------------------------------
                                                             Total   Maximum
                                 Maximum   Time of Max       Flood    Ponded
                        Hours       Rate    Occurrence      Volume     Depth
  Node                 Flooded       LPS   days hr:min    10^6 ltr    Meters
  --------------------------------------------------------------------------
  WS02006248              0.01     20.17      0  02:00       0.000     0.000
  WS02006249              0.90     98.95      0  01:59       0.211     0.000
  WS02006252              0.01    245.63      0  00:00       0.000     0.000
  WS02006256              1.26    293.19      0  00:00       0.425     0.000
  YS02001580              0.01    122.45      0  01:53       0.000     0.000
  YS02001583              0.01    110.58      0  01:53       0.000     0.000
  YS02001586              0.54    552.74      0  02:04       0.494     0.000
  YS02001590              0.01     51.73      0  01:51       0.000     0.000
  YS02001600              0.01      0.78      0  01:53       0.000     0.000
  YS02001601              0.72   1507.11      0  02:03       1.637     0.000
  YS02001602              0.63     62.04      0  02:21       0.128     0.000
  YS02001605              0.01      4.16      0  01:53       0.000     0.000
  YS02001607              0.01     16.54      0  01:53       0.000     0.000
  YS02001610              0.55    877.78      0  02:04       0.870     0.000
  YS02001616              0.01     43.16      0  01:53       0.000     0.000
  YS02001619              0.01     76.77      0  01:53       0.000     0.000
  YS02001622              0.01     57.28      0  01:53       0.000     0.000
  YS02001625              0.52   1428.54      0  02:04       1.417     0.000
  YS02001629              0.16    280.85      0  02:01       0.093     0.000
  YS02001644              0.24   1625.62      0  02:02       0.759     0.000
  YS02001649              0.01     43.27      0  01:57       0.000     0.000
  YS02001770              0.04     73.31      0  02:01       0.006     0.000
  YS02001779              0.22    841.14      0  02:02       0.366     0.000
  YS02001890              0.20    515.10      0  02:01       0.179     0.000
  YS02001907              0.38   2427.21      0  02:02       1.652     0.000
  YS02001918              0.01    206.01      0  01:57       0.003     0.000
  YS02001920              0.01     49.24      0  01:56       0.000     0.000
  YS02001923              0.01    126.88      0  01:56       0.000     0.000
  YS02001926              0.01    331.26      0  01:56       0.002     0.000
  YS02001929              0.01     86.70      0  01:56       0.000     0.000
  
  
  **********************
  Storage Volume Summary
  **********************
  
  ------------------------------------------------------------------------------------------------
                         Average    Avg   Evap  Exfil     Maximum    Max    Time of Max    Maximum
                          Volume   Pcnt   Pcnt   Pcnt      Volume   Pcnt     Occurrence    Outflow
  Storage Unit           1000 m³   Full   Loss   Loss     1000 m³   Full    days hr:min        LPS
  ------------------------------------------------------------------------------------------------
  CC-storage               2.619   40.9    0.0    0.0       4.913   76.6       0  02:30    1783.53
  JK-storage               0.138   47.4    0.0    0.0       0.213   73.0       0  02:05    2300.00
  
  
  ***********************
  Outfall Loading Summary
  ***********************
  
  -----------------------------------------------------------
                         Flow       Avg       Max       Total
                         Freq      Flow      Flow      Volume
  Outfall Node           Pcnt       LPS       LPS    10^6 ltr
  -----------------------------------------------------------
  CC-1                  23.55    683.00    683.00       4.165
  CC-2                  16.65    683.00    683.00       3.095
  JK-1                  12.42   1000.00   1000.00       2.649
  JK-2                   0.98   1000.00   1000.00       0.215
  WSC                   99.96    252.59    551.18       5.532
  -----------------------------------------------------------
  System                30.71   3618.59   3916.42      15.656
  
  
  ********************
  Link Flow Summary
  ********************
  
  -----------------------------------------------------------------------------
                                 Maximum  Time of Max   Maximum    Max/    Max/
                                  |Flow|   Occurrence   |Veloc|    Full    Full
  Link                 Type          LPS  days hr:min     m/sec    Flow   Depth
  -----------------------------------------------------------------------------
  1                    CONDUIT    551.18     0  02:40      2.82    0.19    0.30
  WS02003060WS02003069 CONDUIT    550.96     0  02:38      1.64    0.22    0.34
  WS02003066WSF200     CONDUIT    534.43     0  02:38      2.85    0.09    0.22
  WS02003067WS02003066 CONDUIT    534.33     0  02:38      1.20    0.17    0.41
  WS02003069WS02003072 CONDUIT    550.57     0  02:39      1.37    0.27    0.39
  WS02003072WS02003073 CONDUIT    550.06     0  02:39      1.43    1.19    0.37
  WS02004401WS02004402 CONDUIT    538.17     0  02:18      0.98    0.65    0.89
  WS02004402WS02004403 CONDUIT    537.95     0  02:17      0.97    0.77    0.91
  WS02004403WS02004404 CONDUIT    554.06     0  02:35      0.92    0.40    0.96
  WS02004404WS02004405 CONDUIT    596.94     0  02:20      1.08    5.85    0.98
  WS02004405WS02004406 CONDUIT    544.42     0  02:35      0.99    1.07    0.96
  WS02004406WS02004407 CONDUIT    538.21     0  02:36      1.04    0.24    0.63
  WS02004407WS02004409 CONDUIT    537.28     0  02:36      1.55    0.19    0.48
  WS02004409WS02004410 CONDUIT    536.35     0  02:36      1.03    0.69    0.67
  WS02004410WS02004411 CONDUIT    535.67     0  02:37      0.97    0.73    0.68
  WS02004411WS02004412 CONDUIT    535.08     0  02:37      0.92    0.76    0.69
  WS02004412WS02004413 CONDUIT    534.80     0  02:37      0.82    0.36    0.78
  WS02004413WS02003067 CONDUIT    534.21     0  02:37      1.11    0.23    0.59
  WS02006109WS02006110 CONDUIT    576.94     0  02:26      1.15    1.11    1.00
  WS02006110WS02006113 CONDUIT    572.84     0  02:26      1.39    0.52    0.78
  WS02006111WS02006112 CONDUIT    542.45     0  02:52      1.81    0.26    0.67
  WS02006112WS02006115 CONDUIT    553.04     0  02:35      0.86    0.33    0.88
  WS02006113WS02006111 CONDUIT    561.89     0  02:44      2.47    0.67    0.46
  WS02006115WS02006116 CONDUIT    538.63     0  02:30      1.05    0.69    0.78
  WS02006116WS02004401 CONDUIT    538.43     0  02:35      0.98    0.74    0.86
  WS02006228WS02006109 CONDUIT    572.04     0  02:26      1.14    2.50    1.00
  WS02006229WS02006228 CONDUIT    569.10     0  02:26      1.14    1.88    1.00
  WS02006230WS02006229 CONDUIT    568.74     0  02:26      1.48   12.66    1.00
  WS02006231WS02006230 CONDUIT    581.62     0  02:05      1.60    8.82    1.00
  WS02006232WS02006231 CONDUIT    605.54     0  03:06      1.58    1.27    1.00
  WS02006234WS02006232 CONDUIT    602.93     0  03:06      1.57    1.22    1.00
  WS02006235WS02006234 CONDUIT    589.96     0  03:06      1.53    6.22    1.00
  WS02006238WS02006235 CONDUIT    429.16     0  03:25      1.49    0.96    1.00
  WS02006239WS02006238 CONDUIT    428.93     0  03:25      1.17    1.37    1.00
  WS02006240WS02006239 CONDUIT    427.59     0  03:25      1.30    1.35    1.00
  WS02006242WS02006240 CONDUIT    426.71     0  03:25      1.17    1.69    1.00
  WS02006243WS02006242 CONDUIT    426.10     0  03:25      1.42    0.91    1.00
  WS02006245WS02006243 CONDUIT    425.45     0  03:25      1.45    1.26    1.00
  WS02006247WS02006245 CONDUIT    424.27     0  03:25      1.43    3.36    1.00
  WS02006248WS02006247 CONDUIT    423.37     0  03:25      1.46    0.92    1.00
  WS02006249WS02006248 CONDUIT    422.08     0  03:25      1.38    2.31    1.00
  WS02006251WS02006249 CONDUIT    459.02     0  00:00      1.99    1.32    1.00
  WS02006252WS02006251 CONDUIT    407.68     0  03:06     26.20    1.50    1.00
  WS02006256WS02006235 CONDUIT    288.91     0  00:00      4.23    3.06    1.00
  WSF200WS02003060     CONDUIT    534.72     0  02:38      2.06    0.12    0.28
  YS02001580YS02001583 CONDUIT    137.18     0  01:53      0.70    0.53    1.00
  YS02001583YS02001586 CONDUIT    164.59     0  01:53      0.72    0.25    1.00
  YS02001586YS02001590 CONDUIT    318.07     0  02:06      1.25    0.56    1.00
  YS02001590YS02001593 CONDUIT    318.10     0  02:00      1.13    2.00    1.00
  YS02001593YS02001596 CONDUIT    317.95     0  02:11      1.74    0.50    1.00
  YS02001596YS02001600 CONDUIT    318.09     0  02:01      1.25    0.62    1.00
  YS02001600YS02001601 CONDUIT    318.13     0  02:17      1.13    0.55    1.00
  YS02001601YS02001602 CONDUIT    523.38     0  01:53      1.85    1.89    1.00
  YS02001602YS02001605 CONDUIT    523.28     0  01:53      1.85   11.07    1.00
  YS02001605YS02001607 CONDUIT    522.95     0  01:53      1.85    2.87    1.00
  YS02001607YS02001610 CONDUIT    536.27     0  01:52      0.68    0.51    1.00
  YS02001610YS02001613 CONDUIT    542.47     0  01:52      0.69    0.63    1.00
  YS02001613YS02001616 CONDUIT    542.44     0  01:52      0.70    0.46    1.00
  YS02001616YS02001619 CONDUIT    541.33     0  02:03      0.69    0.94    1.00
  YS02001619YS02001622 CONDUIT   1021.65     0  02:02      1.30    1.51    1.00
  YS02001622YS02001625 CONDUIT   1022.19     0  02:02      1.30    0.55    1.00
  YS02001625YS02001629 CONDUIT    925.46     0  01:53      1.19    0.44    1.00
  YS02001629YS02163301 CONDUIT    919.07     0  01:55      1.17    1.13    1.00
  YS02001633YS02163601 CONDUIT   1366.01     0  01:55      1.74    1.43    1.00
  YS02001641YS02001644 CONDUIT   1359.70     0  01:55      1.73    4.40    1.00
  YS02001644YS02001647 CONDUIT   1777.96     0  01:55      2.28    1.04    1.00
  YS02001647YS02001649 CONDUIT   1788.66     0  01:55      2.33    0.94    1.00
  YS02001649YS02001757 CONDUIT   1967.50     0  01:55      2.51    1.19    1.00
  YS02001652YS02001649 CONDUIT   1090.59     0  02:01      1.39    0.54    1.00
  YS02001655YS02001652 CONDUIT   1090.28     0  02:01      1.39    0.53    1.00
  YS02001658YS02001655 CONDUIT   1090.12     0  02:01      1.91    0.46    1.00
  YS02001661YS02001658 CONDUIT   1090.17     0  02:01      2.33    0.43    1.00
  YS02001664YS02001661 CONDUIT   1088.28     0  02:01      2.32    0.34    0.88
  YS02001745YS02001748 CONDUIT    706.98     0  02:01      2.19    0.27    0.97
  YS02001748YS02001751 CONDUIT    707.08     0  02:01      1.71    0.36    1.00
  YS02001751YS02001754 CONDUIT    707.16     0  02:01      1.47    0.34    1.00
  YS02001754YS02001757 CONDUIT    708.24     0  02:01      0.90    0.29    1.00
  YS02001757CaochengTiaoxuchi CONDUIT   3287.97     0  01:58      4.19    1.42    1.00
  YS02001759YS02001757 CONDUIT   1394.90     0  02:00      1.78    0.99    1.00
  YS02001762YS02001759 CONDUIT    738.57     0  01:57      0.94    0.85    1.00
  YS02001765YS02001762 CONDUIT    737.89     0  01:57      0.94    0.69    1.00
  YS02001767YS02001765 CONDUIT    741.81     0  01:57      0.94    0.93    1.00
  YS02001770YS02001767 CONDUIT    743.33     0  01:57      0.95    2.94    1.00
  YS02001774YS02001770 CONDUIT    841.25     0  02:02      1.07    0.54    1.00
  YS02001779YS02001774 CONDUIT    841.15     0  02:02      1.07    0.42    1.00
  YS02001783YS02001784 CONDUIT   1169.27     0  02:00      2.33    1.61    1.00
  YS02001784YS02001785 CONDUIT   1169.96     0  01:59      2.33    2.72    1.00
  YS02001786YS02001788 CONDUIT   1170.21     0  02:00      2.49    2.25    0.89
  YS02001788YS02001790 CONDUIT   1182.79     0  02:00      2.73    0.87    0.85
  YS02001790YS02001791 CONDUIT   1303.17     0  02:00      3.45    1.42    0.71
  YS02001791YS02001793 CONDUIT   1260.44     0  02:00      6.62    0.54    0.44
  YS02001793JiankangQianchi CONDUIT   1230.21     0  02:14      2.42    0.10    0.65
  YS02001882YS02001884 CONDUIT     68.80     0  01:54      0.13    0.08    1.00
  YS02001884YS02001887 CONDUIT     75.91     0  01:54      0.10    0.10    1.00
  YS02001887YS02001890 CONDUIT   1029.76     0  02:01      1.31    1.76    1.00
  YS02001890YS02001895 CONDUIT    517.91     0  02:05      0.66    0.24    1.00
  YS02001895YS02001898 CONDUIT    517.71     0  02:05      0.66    0.90    1.00
  YS02001898YS02001901 CONDUIT    517.89     0  02:05      0.66    0.33    1.00
  YS02001901YS02001904 CONDUIT    517.68     0  02:05      0.66    0.80    1.00
  YS02001904YS02001907 CONDUIT    517.59     0  02:02      0.66    0.18    1.00
  YS02001907YS02006553 CONDUIT    800.94     0  02:21      0.89    0.94    1.00
  YS02001910YS02001907 CONDUIT   1725.92     0  02:02      2.20    0.97    1.00
  YS02001915YS02001910 CONDUIT   1726.44     0  02:02      2.20    0.86    1.00
  YS02001918YS02001915 CONDUIT    570.18     0  02:02      0.73    0.31    1.00
  YS02001920YS02001918 CONDUIT    569.63     0  02:02      0.73    0.55    1.00
  YS02001923YS02001920 CONDUIT    566.66     0  02:02      0.72    0.25    1.00
  YS02001926YS02001923 CONDUIT    564.11     0  02:02      0.96    0.81    1.00
  YS02001929YS02001926 CONDUIT    564.55     0  02:02      1.14    0.27    1.00
  YS02006553YS02006556 CONDUIT    801.78     0  02:21      1.02    0.69    1.00
  YS02006556YS02006558 CONDUIT    802.39     0  02:21      1.02    0.63    1.00
  YS02006558YS02006561 CONDUIT   1170.03     0  01:56      4.14    2.59    1.00
  YS02006561YS02001783 CONDUIT   1168.85     0  02:00      2.33    0.61    1.00
  YS02163301YS02001633 CONDUIT    918.65     0  01:54      1.17    0.86    1.00
  YS02163601YS02164001 CONDUIT   1364.67     0  01:55      1.74    1.21    1.00
  YS02164001YS02001641 CONDUIT   1361.40     0  01:55      1.73    1.86    1.00
  CC-R1                PUMP       683.00     0  00:00              1.00
  CC-R2                PUMP       683.00     0  00:00              1.00
  CC-S1                PUMP       200.00     0  00:00              1.00
  CC-S2                PUMP       200.00     0  00:00              1.00
  JK-R1                PUMP      1000.00     0  00:00              1.00
  JK-R2                PUMP      1000.00     0  00:00              1.00
  JK-S                 PUMP       300.00     0  00:00              1.00
  
  
  ***************************
  Flow Classification Summary
  ***************************
  
  -------------------------------------------------------------------------------------
                      Adjusted    ---------- Fraction of Time in Flow Class ---------- 
                       /Actual         Up    Down  Sub   Sup   Up    Down  Norm  Inlet 
  Conduit               Length    Dry  Dry   Dry   Crit  Crit  Crit  Crit  Ltd   Ctrl  
  -------------------------------------------------------------------------------------
  1                       1.00   0.00  0.00  0.00  0.00  1.00  0.00  0.00  0.48  0.00
  WS02003060WS02003069    1.00   0.00  0.00  0.00  0.98  0.02  0.00  0.00  0.68  0.00
  WS02003066WSF200        1.00   0.13  0.00  0.00  0.00  0.87  0.00  0.00  0.77  0.00
  WS02003067WS02003066    1.00   0.10  0.02  0.00  0.88  0.00  0.00  0.00  0.00  0.00
  WS02003069WS02003072    1.00   0.00  0.00  0.00  0.99  0.01  0.00  0.00  0.73  0.00
  WS02003072WS02003073    1.00   0.00  0.00  0.00  0.00  0.00  0.00  1.00  0.00  0.00
  WS02004401WS02004402    1.00   0.02  0.00  0.00  0.98  0.00  0.00  0.00  0.00  0.00
  WS02004402WS02004403    1.00   0.02  0.00  0.00  0.97  0.00  0.00  0.00  0.00  0.00
  WS02004403WS02004404    1.00   0.00  0.03  0.00  0.97  0.00  0.00  0.00  0.00  0.00
  WS02004404WS02004405    1.00   0.00  0.00  0.00  1.00  0.00  0.00  0.00  0.01  0.00
  WS02004405WS02004406    1.00   0.00  0.00  0.00  1.00  0.00  0.00  0.00  0.00  0.00
  WS02004406WS02004407    1.00   0.00  0.05  0.00  0.95  0.00  0.00  0.00  0.00  0.00
  WS02004407WS02004409    1.00   0.05  0.00  0.00  0.94  0.01  0.00  0.00  0.94  0.00
  WS02004409WS02004410    1.00   0.05  0.00  0.00  0.95  0.00  0.00  0.00  0.03  0.00
  WS02004410WS02004411    1.00   0.05  0.00  0.00  0.95  0.00  0.00  0.00  0.01  0.00
  WS02004411WS02004412    1.00   0.05  0.00  0.00  0.95  0.00  0.00  0.00  0.00  0.00
  WS02004412WS02004413    1.00   0.05  0.00  0.00  0.94  0.00  0.00  0.00  0.01  0.00
  WS02004413WS02003067    1.00   0.06  0.04  0.00  0.00  0.00  0.90  0.00  0.00  0.00
  WS02006109WS02006110    1.00   0.00  0.01  0.00  0.98  0.00  0.01  0.00  0.00  0.00
  WS02006110WS02006113    1.00   0.01  0.01  0.00  0.98  0.00  0.00  0.00  0.00  0.00
  WS02006111WS02006112    1.00   0.02  0.00  0.00  0.98  0.00  0.00  0.00  0.98  0.00
  WS02006112WS02006115    1.00   0.02  0.00  0.00  0.97  0.00  0.00  0.00  0.00  0.00
  WS02006113WS02006111    1.00   0.02  0.00  0.00  0.00  0.98  0.00  0.00  0.16  0.00
  WS02006115WS02006116    1.00   0.02  0.00  0.00  0.97  0.00  0.00  0.01  0.00  0.00
  WS02006116WS02004401    1.00   0.02  0.00  0.00  0.98  0.00  0.00  0.00  0.00  0.00
  WS02006228WS02006109    1.00   0.00  0.00  0.00  1.00  0.00  0.00  0.00  0.00  0.00
  WS02006229WS02006228    1.00   0.00  0.00  0.00  0.99  0.00  0.00  0.01  0.00  0.00
  WS02006230WS02006229    1.00   0.00  0.00  0.00  0.99  0.00  0.00  0.01  0.01  0.00
  WS02006231WS02006230    1.00   0.00  0.00  0.00  0.26  0.00  0.74  0.00  0.00  0.00
  WS02006232WS02006231    1.00   0.00  0.00  0.00  0.98  0.00  0.01  0.00  0.00  0.00
  WS02006234WS02006232    1.00   0.00  0.00  0.00  1.00  0.00  0.00  0.00  0.11  0.00
  WS02006235WS02006234    1.00   0.00  0.00  0.00  0.86  0.00  0.14  0.00  0.00  0.00
  WS02006238WS02006235    1.00   0.00  0.00  0.00  1.00  0.00  0.00  0.00  0.00  0.00
  WS02006239WS02006238    1.00   0.00  0.00  0.00  1.00  0.00  0.00  0.00  0.21  0.00
  WS02006240WS02006239    1.00   0.00  0.00  0.00  0.67  0.00  0.00  0.33  0.03  0.00
  WS02006242WS02006240    1.00   0.00  0.00  0.00  0.99  0.00  0.01  0.00  0.00  0.00
  WS02006243WS02006242    1.00   0.00  0.00  0.00  0.99  0.00  0.00  0.01  0.51  0.00
  WS02006245WS02006243    1.00   0.00  0.00  0.00  0.78  0.00  0.00  0.21  0.00  0.00
  WS02006247WS02006245    1.00   0.00  0.00  0.00  0.97  0.00  0.00  0.03  0.00  0.00
  WS02006248WS02006247    1.00   0.00  0.00  0.00  0.98  0.00  0.00  0.02  0.36  0.00
  WS02006249WS02006248    1.00   0.00  0.00  0.00  0.48  0.00  0.52  0.00  0.00  0.00
  WS02006251WS02006249    1.00   0.00  0.00  0.00  0.99  0.01  0.00  0.00  0.52  0.00
  WS02006252WS02006251    1.00   0.00  0.56  0.00  0.12  0.00  0.32  0.00  0.00  0.00
  WS02006256WS02006235    1.00   0.00  0.00  0.00  0.99  0.01  0.00  0.00  0.00  0.00
  WSF200WS02003060        1.00   0.00  0.13  0.00  0.26  0.62  0.00  0.00  0.50  0.00
  YS02001580YS02001583    1.00   0.23  0.57  0.00  0.20  0.00  0.00  0.00  0.66  0.00
  YS02001583YS02001586    1.00   0.42  0.32  0.00  0.25  0.00  0.00  0.00  0.66  0.00
  YS02001586YS02001590    1.00   0.13  0.00  0.00  0.43  0.04  0.00  0.40  0.36  0.00
  YS02001590YS02001593    1.00   0.13  0.01  0.00  0.12  0.00  0.74  0.00  0.00  0.00
  YS02001593YS02001596    1.00   0.13  0.00  0.00  0.14  0.01  0.00  0.72  0.02  0.00
  YS02001596YS02001600    1.00   0.14  0.00  0.00  0.20  0.01  0.00  0.65  0.04  0.00
  YS02001600YS02001601    1.00   0.13  0.01  0.00  0.86  0.00  0.00  0.00  0.60  0.00
  YS02001601YS02001602    1.00   0.13  0.01  0.00  0.87  0.00  0.00  0.00  0.00  0.00
  YS02001602YS02001605    1.00   0.14  0.00  0.00  0.86  0.00  0.00  0.00  0.00  0.00
  YS02001605YS02001607    1.00   0.14  0.00  0.00  0.86  0.00  0.00  0.00  0.00  0.00
  YS02001607YS02001610    1.00   0.13  0.01  0.00  0.86  0.00  0.00  0.00  0.01  0.00
  YS02001610YS02001613    1.00   0.13  0.00  0.00  0.87  0.00  0.00  0.00  0.00  0.00
  YS02001613YS02001616    1.00   0.13  0.00  0.00  0.87  0.00  0.00  0.00  0.00  0.00
  YS02001616YS02001619    1.00   0.13  0.00  0.00  0.87  0.00  0.00  0.00  0.00  0.00
  YS02001619YS02001622    1.00   0.13  0.00  0.00  0.87  0.00  0.00  0.00  0.29  0.00
  YS02001622YS02001625    1.00   0.13  0.00  0.00  0.87  0.00  0.00  0.00  0.04  0.00
  YS02001625YS02001629    1.00   0.13  0.05  0.00  0.17  0.00  0.66  0.00  0.00  0.00
  YS02001629YS02163301    1.00   0.15  0.01  0.00  0.84  0.00  0.00  0.00  0.00  0.00
  YS02001633YS02163601    1.00   0.00  0.01  0.00  0.99  0.00  0.00  0.00  0.15  0.00
  YS02001641YS02001644    1.00   0.00  0.01  0.00  0.99  0.00  0.00  0.00  0.00  0.00
  YS02001644YS02001647    1.00   0.00  0.17  0.00  0.83  0.00  0.00  0.00  0.00  0.00
  YS02001647YS02001649    1.00   0.00  0.17  0.00  0.57  0.26  0.00  0.00  0.56  0.00
  YS02001649YS02001757    1.00   0.00  0.00  0.00  0.87  0.13  0.00  0.00  0.42  0.00
  YS02001652YS02001649    1.00   0.00  0.00  0.00  0.96  0.03  0.00  0.00  0.74  0.00
  YS02001655YS02001652    1.00   0.00  0.00  0.00  0.20  0.01  0.00  0.79  0.05  0.00
  YS02001658YS02001655    1.00   0.00  0.14  0.00  0.68  0.18  0.00  0.00  0.67  0.00
  YS02001661YS02001658    1.00   0.14  0.00  0.00  0.51  0.34  0.00  0.00  0.68  0.00
  YS02001664YS02001661    1.00   0.13  0.00  0.00  0.79  0.09  0.00  0.00  0.84  0.00
  YS02001745YS02001748    1.00   0.00  0.00  0.00  0.11  0.01  0.00  0.88  0.05  0.00
  YS02001748YS02001751    1.00   0.00  0.00  0.00  0.84  0.16  0.00  0.00  0.76  0.00
  YS02001751YS02001754    1.00   0.00  0.00  0.00  0.18  0.00  0.00  0.81  0.04  0.00
  YS02001754YS02001757    1.00   0.00  0.00  0.00  1.00  0.00  0.00  0.00  0.80  0.00
  YS02001757CaochengTiaoxuchi    1.00   0.00  0.00  0.00  1.00  0.00  0.00  0.00  0.64  0.00
  YS02001759YS02001757    1.00   0.00  0.00  0.00  1.00  0.00  0.00  0.00  0.52  0.00
  YS02001762YS02001759    1.00   0.00  0.00  0.00  1.00  0.00  0.00  0.00  0.06  0.00
  YS02001765YS02001762    1.00   0.00  0.00  0.00  1.00  0.00  0.00  0.00  0.67  0.00
  YS02001767YS02001765    1.00   0.00  0.00  0.00  1.00  0.00  0.00  0.00  0.01  0.00
  YS02001770YS02001767    1.00   0.00  0.00  0.00  1.00  0.00  0.00  0.00  0.00  0.00
  YS02001774YS02001770    1.00   0.00  0.13  0.00  0.70  0.00  0.17  0.00  0.03  0.00
  YS02001779YS02001774    1.00   0.00  0.00  0.00  1.00  0.00  0.00  0.00  0.76  0.00
  YS02001783YS02001784    1.00   0.00  0.18  0.00  0.82  0.00  0.00  0.00  0.56  0.00
  YS02001784YS02001785    1.00   0.00  0.00  0.00  1.00  0.00  0.00  0.00  0.17  0.00
  YS02001786YS02001788    1.00   0.00  0.00  0.00  0.80  0.20  0.00  0.00  0.00  0.00
  YS02001788YS02001790    1.00   0.00  0.00  0.00  0.22  0.78  0.00  0.00  0.81  0.00
  YS02001790YS02001791    1.00   0.00  0.00  0.00  0.01  0.99  0.00  0.00  0.16  0.00
  YS02001791YS02001793    1.00   0.00  0.00  0.00  0.00  1.00  0.00  0.00  0.01  0.00
  YS02001793JiankangQianchi    1.00   0.00  0.00  0.00  0.99  0.01  0.00  0.00  0.95  0.00
  YS02001882YS02001884    1.00   0.15  0.01  0.00  0.84  0.00  0.00  0.00  0.00  0.00
  YS02001884YS02001887    1.00   0.06  0.05  0.00  0.89  0.00  0.00  0.00  0.00  0.00
  YS02001887YS02001890    1.00   0.00  0.00  0.00  0.97  0.00  0.03  0.00  0.00  0.00
  YS02001890YS02001895    1.00   0.00  0.16  0.00  0.83  0.00  0.00  0.00  0.00  0.00
  YS02001895YS02001898    1.00   0.17  0.00  0.00  0.82  0.00  0.02  0.00  0.00  0.00
  YS02001898YS02001901    1.00   0.17  0.00  0.00  0.83  0.00  0.00  0.00  0.01  0.00
  YS02001901YS02001904    1.00   0.17  0.00  0.00  0.83  0.00  0.00  0.00  0.00  0.00
  YS02001904YS02001907    1.00   0.00  0.16  0.00  0.83  0.00  0.00  0.00  0.00  0.00
  YS02001907YS02006553    1.00   0.00  0.02  0.00  0.98  0.00  0.00  0.00  0.00  0.00
  YS02001910YS02001907    1.00   0.00  0.00  0.00  0.97  0.00  0.00  0.03  0.12  0.00
  YS02001915YS02001910    1.00   0.00  0.00  0.00  0.97  0.03  0.00  0.00  0.16  0.00
  YS02001918YS02001915    1.00   0.00  0.01  0.00  0.98  0.02  0.00  0.00  0.75  0.00
  YS02001920YS02001918    1.00   0.00  0.01  0.00  0.99  0.00  0.00  0.00  0.00  0.00
  YS02001923YS02001920    1.00   0.00  0.00  0.00  1.00  0.00  0.00  0.00  0.92  0.00
  YS02001926YS02001923    1.00   0.00  0.07  0.00  0.06  0.00  0.86  0.00  0.00  0.00
  YS02001929YS02001926    1.00   0.00  0.13  0.00  0.87  0.00  0.00  0.00  0.82  0.00
  YS02006553YS02006556    1.00   0.01  0.00  0.00  0.99  0.00  0.00  0.00  0.03  0.00
  YS02006556YS02006558    1.00   0.00  0.00  0.00  1.00  0.00  0.00  0.00  0.00  0.00
  YS02006558YS02006561    1.00   0.18  0.00  0.00  0.06  0.76  0.00  0.00  0.18  0.00
  YS02006561YS02001783    1.00   0.18  0.00  0.00  0.09  0.73  0.00  0.00  0.68  0.00
  YS02163301YS02001633    1.00   0.00  0.15  0.00  0.85  0.00  0.00  0.00  0.00  0.00
  YS02163601YS02164001    1.00   0.00  0.08  0.00  0.92  0.00  0.00  0.00  0.00  0.00
  YS02164001YS02001641    1.00   0.01  0.07  0.00  0.92  0.00  0.00  0.00  0.06  0.00
  
  
  *************************
  Conduit Surcharge Summary
  *************************
  
  ----------------------------------------------------------------------------
                                                           Hours        Hours 
                         --------- Hours Full --------   Above Full   Capacity
  Conduit                Both Ends  Upstream  Dnstream   Normal Flow   Limited
  ----------------------------------------------------------------------------
  WS02003072WS02003073        0.01      0.01      0.01      1.35         0.01
  WS02004403WS02004404        0.01      0.01      0.01      0.01         0.01
  WS02004404WS02004405        0.01      0.01      0.01      3.69         0.01
  WS02004405WS02004406        0.01      0.01      0.01      0.57         0.01
  WS02006109WS02006110        0.65      0.65      1.99      0.81         0.01
  WS02006110WS02006113        0.01      0.01      1.98      0.01         0.01
  WS02006111WS02006112        0.01      0.01      2.31      0.01         0.01
  WS02006112WS02006115        0.01      0.01      0.88      0.01         0.01
  WS02006228WS02006109        1.97      1.99      1.97      2.50         1.97
  WS02006229WS02006228        1.97      1.97      1.97      2.18         1.95
  WS02006230WS02006229        2.04      2.15      2.04      4.26         2.04
  WS02006231WS02006230        0.67      0.67      0.92      3.91         0.01
  WS02006232WS02006231        0.84      0.84      2.00      0.94         0.01
  WS02006234WS02006232        1.90      1.90      2.00      0.91         0.90
  WS02006235WS02006234        1.29      1.30      1.91      3.72         0.02
  WS02006238WS02006235        1.93      1.93      2.00      0.01         0.01
  WS02006239WS02006238        1.96      1.98      1.97      2.07         1.75
  WS02006240WS02006239        1.94      1.97      1.95      2.08         1.65
  WS02006242WS02006240        1.97      1.97      2.00      2.21         0.01
  WS02006243WS02006242        1.96      1.96      1.98      0.01         0.06
  WS02006245WS02006243        1.96      1.96      1.96      1.39         1.28
  WS02006247WS02006245        1.96      1.96      1.96      3.45         1.94
  WS02006248WS02006247        1.95      1.95      1.96      0.01         0.07
  WS02006249WS02006248        1.94      1.95      1.94      3.43         0.01
  WS02006251WS02006249        1.94      1.94      1.94      2.17         1.85
  WS02006252WS02006251        2.23      2.23      2.24      2.23         0.01
  WS02006256WS02006235        3.75      3.81      6.52      1.27         0.01
  YS02001580YS02001583        0.66      0.66      0.71      0.01         0.01
  YS02001583YS02001586        0.67      0.67      0.79      0.01         0.01
  YS02001586YS02001590        0.80      0.80      0.87      0.01         0.01
  YS02001590YS02001593        0.86      0.86      0.88      0.91         0.01
  YS02001593YS02001596        0.88      0.88      0.98      0.01         0.01
  YS02001596YS02001600        1.03      1.03      1.13      0.01         0.01
  YS02001600YS02001601        1.19      1.19      1.45      0.01         0.01
  YS02001601YS02001602        1.36      1.36      1.48      1.11         0.01
  YS02001602YS02001605        1.31      1.31      1.36      2.26         0.01
  YS02001605YS02001607        1.27      1.31      1.27      1.42         1.27
  YS02001607YS02001610        0.86      0.86      0.89      0.01         0.01
  YS02001610YS02001613        0.85      0.85      0.89      0.01         0.01
  YS02001613YS02001616        0.82      0.82      0.85      0.01         0.01
  YS02001616YS02001619        0.80      0.80      0.82      0.01         0.06
  YS02001619YS02001622        0.80      0.80      0.80      0.84         0.76
  YS02001622YS02001625        0.80      0.80      0.98      0.01         0.01
  YS02001625YS02001629        0.75      0.75      0.98      0.01         0.01
  YS02001629YS02163301        0.98      0.98      0.99      0.05         0.11
  YS02001633YS02163601        1.01      1.01      1.05      0.28         0.28
  YS02001641YS02001644        0.94      0.96      0.94      1.52         0.93
  YS02001644YS02001647        0.74      0.74      0.94      0.03         0.01
  YS02001647YS02001649        0.74      0.74      0.88      0.01         0.01
  YS02001649YS02001757        0.87      0.88      0.95      0.06         0.02
  YS02001652YS02001649        0.70      0.70      0.88      0.01         0.01
  YS02001655YS02001652        0.50      0.50      0.68      0.01         0.01
  YS02001658YS02001655        0.28      0.28      0.50      0.01         0.01
  YS02001661YS02001658        0.10      0.10      0.28      0.01         0.01
  YS02001664YS02001661        0.01      0.01      0.15      0.01         0.01
  YS02001745YS02001748        0.01      0.01      0.22      0.01         0.01
  YS02001748YS02001751        0.26      0.26      0.38      0.01         0.01
  YS02001751YS02001754        0.38      0.38      0.58      0.01         0.01
  YS02001754YS02001757        0.63      0.63      0.95      0.01         0.01
  YS02001757CaochengTiaoxuchi        0.95      0.95      1.94      0.38         0.35
  YS02001759YS02001757        0.85      0.85      0.95      0.01         0.03
  YS02001762YS02001759        0.82      0.82      0.85      0.01         0.02
  YS02001765YS02001762        0.77      0.77      0.82      0.01         0.01
  YS02001767YS02001765        0.73      0.73      0.77      0.01         0.02
  YS02001770YS02001767        0.73      0.73      0.73      0.56         0.46
  YS02001774YS02001770        0.71      0.71      0.79      0.01         0.01
  YS02001779YS02001774        0.58      0.58      0.79      0.01         0.01
  YS02001783YS02001784        0.55      0.57      0.55      0.71         0.55
  YS02001784YS02001785        0.44      0.55      0.44      0.93         0.44
  YS02001786YS02001788        0.01      0.44      0.01      0.81         0.01
  YS02001790YS02001791        0.01      0.01      0.01      0.54         0.01
  YS02001793JiankangQianchi        0.01      0.01      7.51      0.01         0.01
  YS02001882YS02001884        0.51      0.51      0.53      0.01         0.01
  YS02001884YS02001887        0.55      0.55      0.56      0.01         0.01
  YS02001887YS02001890        0.57      0.57      0.59      0.16         0.01
  YS02001890YS02001895        0.51      0.51      0.60      0.01         0.01
  YS02001895YS02001898        0.50      0.50      0.51      0.01         0.01
  YS02001898YS02001901        0.51      0.51      0.55      0.01         0.01
  YS02001901YS02001904        0.54      0.54      0.55      0.01         0.01
  YS02001904YS02001907        0.54      0.54      0.79      0.01         0.01
  YS02001907YS02006553        0.95      0.95      1.01      0.01         0.01
  YS02001910YS02001907        0.60      0.60      0.77      0.01         0.01
  YS02001915YS02001910        0.51      0.51      0.60      0.01         0.01
  YS02001918YS02001915        0.43      0.43      0.51      0.01         0.01
  YS02001920YS02001918        0.43      0.43      0.45      0.01         0.01
  YS02001923YS02001920        0.39      0.39      0.45      0.01         0.01
  YS02001926YS02001923        0.16      0.16      0.18      0.01         0.01
  YS02001929YS02001926        0.02      0.02      0.18      0.01         0.01
  YS02006553YS02006556        0.69      0.69      0.78      0.01         0.01
  YS02006556YS02006558        0.73      0.73      0.81      0.01         0.01
  YS02006558YS02006561        0.47      0.68      0.47      0.89         0.47
  YS02006561YS02001783        0.40      0.40      0.57      0.01         0.01
  YS02163301YS02001633        0.99      0.99      1.03      0.01         0.01
  YS02163601YS02164001        0.97      0.97      1.05      0.06         0.01
  YS02164001YS02001641        0.96      0.97      0.96      0.66         0.61
  
  
  ***************
  Pumping Summary
  ***************
  
  ---------------------------------------------------------------------------------------------------------
                                                  Min       Avg       Max     Total     Power    % Time Off
                        Percent   Number of      Flow      Flow      Flow    Volume     Usage    Pump Curve
  Pump                 Utilized   Start-Ups       LPS       LPS       LPS  10^6 ltr     Kw-hr    Low   High
  ---------------------------------------------------------------------------------------------------------
  CC-R1                   21.19           9      0.00    683.00    683.00     4.168     78.34    0.0   15.3
  CC-R2                   15.75           6      0.00    683.00    683.00     3.098     58.65    0.0   18.3
  CC-S1                   43.77           6      0.00    200.00    200.00     2.521     14.46    0.0    0.0
  CC-S2                   28.00           8      0.00    200.00    200.00     1.613      8.96    0.0    0.0
  JK-R1                    9.21          14      0.00   1000.00   1000.00     2.652     30.30    0.0    0.0
  JK-R2                    0.75           4      0.00   1000.00   1000.00     0.216      1.77    0.0    0.0
  JK-S                    15.68          27      0.00    300.00    300.00     1.354     18.71    0.0    0.0
  

  Analysis begun on:  Mon Feb 24 09:50:39 2025
  Analysis ended on:  Mon Feb 24 09:50:40 2025
  Total elapsed time: 00:00:01