
  EPA STORM WATER MANAGEMENT MODEL - VERSION 5.2 (Build 5.2.4)
  PYSWMM TOOLKIT API - VERSION v1.0 (2023-11-27)
  ------------------------------------------------------------

  WARNING 04: minimum elevation drop used for Conduit WS02004404WS02004405
  WARNING 03: negative offset ignored for Link YS02001904YS02001907
  
  ****************
  Analysis Options
  ****************
  Flow Units ............... LPS
  Process Models:
    Rainfall/Runoff ........ YES
    RDII ................... NO
    Snowmelt ............... NO
    Groundwater ............ NO
    Flow Routing ........... YES
    Ponding Allowed ........ NO
    Water Quality .......... NO
  Infiltration Method ...... HORTON
  Flow Routing Method ...... DYNWAVE
  Surcharge Method ......... EXTRAN
  Starting Date ............ 08/28/2015 08:00:00
  Ending Date .............. 08/28/2015 16:00:00
  Antecedent Dry Days ...... 8.0
  Report Time Step ......... 00:01:00
  Wet Time Step ............ 00:01:00
  Dry Time Step ............ 00:01:00
  Routing Time Step ........ 30.00 sec
  Variable Time Step ....... YES
  Maximum Trials ........... 8
  Number of Threads ........ 4
  Head Tolerance ........... 0.001500 m
  
  
  **************************        Volume         Depth
  Runoff Quantity Continuity     hectare-m            mm
  **************************     ---------       -------
  Total Precipitation ......         2.870        86.517
  Evaporation Loss .........         0.000         0.000
  Infiltration Loss ........         0.102         3.067
  Surface Runoff ...........         2.736        82.477
  Final Storage ............         0.033         0.995
  Continuity Error (%) .....        -0.025
  
  
  **************************        Volume        Volume
  Flow Routing Continuity        hectare-m      10^6 ltr
  **************************     ---------     ---------
  Dry Weather Inflow .......         0.025         0.251
  Wet Weather Inflow .......         2.736        27.359
  Groundwater Inflow .......         0.000         0.000
  RDII Inflow ..............         0.000         0.000
  External Inflow ..........         0.083         0.834
  External Outflow .........         1.832        18.318
  Flooding Loss ............         1.080        10.802
  Evaporation Loss .........         0.000         0.000
  Exfiltration Loss ........         0.000         0.000
  Initial Stored Volume ....         0.243         2.431
  Final Stored Volume ......         0.182         1.824
  Continuity Error (%) .....        -0.227
  
  
  *************************
  Highest Continuity Errors
  *************************
  Node YS02001583 (-10.64%)
  Node YS02001884 (5.14%)
  Node WS02006256 (-1.11%)
  
  
  ***************************
  Time-Step Critical Elements
  ***************************
  Link WS02006252WS02006251 (43.94%)
  Link WS02006238WS02006235 (13.56%)
  Link WS02004404WS02004405 (10.72%)
  Link YS02001791YS02001793 (8.42%)
  Link WS02006235WS02006234 (5.36%)
  
  
  ********************************
  Highest Flow Instability Indexes
  ********************************
  Link WS02006113WS02006111 (46)
  Link WS02006111WS02006112 (24)
  Link WS02006252WS02006251 (19)
  Link WS02006238WS02006235 (16)
  Link YS02001602YS02001605 (15)
  
  
  *********************************
  Most Frequent Nonconverging Nodes
  *********************************
  Node CC-1 (15.92%)
  Node CC-2 (15.92%)
  Node JK-1 (15.92%)
  Node JK-2 (15.92%)
  Node WSC (15.92%)
  
  
  *************************
  Routing Time Step Summary
  *************************
  Minimum Time Step           :     0.01 sec
  Average Time Step           :     1.96 sec
  Maximum Time Step           :     7.04 sec
  % of Time in Steady State   :     0.00
  Average Iterations per Step :     3.33
  % of Steps Not Converging   :    15.92
  Time Step Frequencies       :
     30.000 - 13.228 sec      :     0.00 %
     13.228 -  5.833 sec      :     6.33 %
      5.833 -  2.572 sec      :    21.81 %
      2.572 -  1.134 sec      :    21.61 %
      1.134 -  0.500 sec      :    50.24 %
  
  
  ***************************
  Subcatchment Runoff Summary
  ***************************
  
  ------------------------------------------------------------------------------------------------------------------------------
                            Total      Total      Total      Total     Imperv       Perv      Total       Total     Peak  Runoff
                           Precip      Runon       Evap      Infil     Runoff     Runoff     Runoff      Runoff   Runoff   Coeff
  Subcatchment                 mm         mm         mm         mm         mm         mm         mm    10^6 ltr      LPS
  ------------------------------------------------------------------------------------------------------------------------------
  sub60                     86.52       0.00       0.00       1.86      74.94       8.53      83.47        1.10   675.48   0.965
  sub61                     86.52       0.00       0.00       2.69      70.69      12.02      82.71        1.52   934.00   0.956
  sub62                     86.52       0.00       0.00       1.24      78.32       5.69      84.00        2.30  1316.88   0.971
  sub63                     86.52       0.00       0.00       4.94      60.46      20.16      80.62        1.83  1036.67   0.932
  sub64                     86.52       0.00       0.00       2.50      72.34      10.48      82.82        1.99  1069.32   0.957
  sub65                     86.52       0.00       0.00       2.17      74.02       9.09      83.11        2.29  1194.29   0.961
  sub66                     86.52       0.00       0.00       6.06      60.36      19.03      79.39        3.70  1553.89   0.918
  sub67                     86.52       0.00       0.00       1.19      78.36       5.73      84.09        1.56  1021.82   0.972
  sub68                     86.52       0.00       0.00       2.23      73.23       9.89      83.11        2.29  1350.73   0.961
  sub69                     86.52       0.00       0.00       1.99      73.43      10.99      84.43        3.13  1594.22   0.976
  sub70                     86.52       0.00       0.00       6.55      56.94      22.87      79.81        2.31   874.78   0.922
  sub71                     86.52       0.00       0.00       1.27      78.27       5.65      83.93        2.19  1159.20   0.970
  sub72                     86.52       0.00       0.00       1.13      79.06       4.93      83.99        1.15   559.26   0.971
  
  
  ******************
  Node Depth Summary
  ******************
  
  ---------------------------------------------------------------------------------
                                 Average  Maximum  Maximum  Time of Max    Reported
                                   Depth    Depth      HGL   Occurrence   Max Depth
  Node                 Type       Meters   Meters   Meters  days hr:min      Meters
  ---------------------------------------------------------------------------------
  WS02003060           JUNCTION     0.24     0.38     5.31     0  03:12        0.38
  WS02003066           JUNCTION     0.20     0.30     5.85     0  03:13        0.30
  WS02003067           JUNCTION     0.51     0.70     6.02     0  03:13        0.70
  WS02003069           JUNCTION     0.27     0.43     5.01     0  03:14        0.43
  WS02003072           JUNCTION     0.34     0.50     4.87     0  03:14        0.50
  WS02003073           JUNCTION     0.19     0.30     4.36     0  03:15        0.30
  WS02004401           JUNCTION     0.60     0.85     6.85     0  03:10        0.85
  WS02004402           JUNCTION     0.63     0.88     6.84     0  03:10        0.88
  WS02004403           JUNCTION     0.65     0.89     6.82     0  03:11        0.89
  WS02004404           JUNCTION     0.73     0.96     6.81     0  03:11        0.96
  WS02004405           JUNCTION     0.73     0.95     6.80     0  03:11        0.95
  WS02004406           JUNCTION     0.74     0.96     6.79     0  03:11        0.96
  WS02004407           JUNCTION     0.18     0.30     6.61     0  03:11        0.30
  WS02004409           JUNCTION     0.41     0.67     6.44     0  03:11        0.67
  WS02004410           JUNCTION     0.43     0.68     6.40     0  03:12        0.68
  WS02004411           JUNCTION     0.45     0.69     6.37     0  03:12        0.69
  WS02004412           JUNCTION     0.47     0.70     6.34     0  03:12        0.70
  WS02004413           JUNCTION     0.63     0.86     6.33     0  03:12        0.86
  WS02006109           JUNCTION     0.66     1.15     7.77     0  02:27        1.14
  WS02006110           JUNCTION     0.66     1.18     7.76     0  01:42        1.18
  WS02006111           JUNCTION     0.18     0.29     6.99     0  02:39        0.29
  WS02006112           JUNCTION     0.75     1.11     6.99     0  02:23        1.06
  WS02006113           JUNCTION     0.28     0.46     7.35     0  03:08        0.46
  WS02006115           JUNCTION     0.48     0.75     6.89     0  03:10        0.75
  WS02006116           JUNCTION     0.57     0.83     6.87     0  03:10        0.83
  WS02006228           JUNCTION     0.65     1.17     7.82     0  01:56        1.11
  WS02006229           JUNCTION     0.62     1.21     7.90     0  01:56        1.09
  WS02006230           JUNCTION     0.62     1.38     8.13     0  01:56        1.23
  WS02006231           JUNCTION     0.43     1.30     8.43     0  01:55        1.03
  WS02006232           JUNCTION     0.57     1.33     8.37     0  01:55        1.26
  WS02006234           JUNCTION     0.49     1.63     8.79     0  01:50        1.25
  WS02006235           JUNCTION     0.53     1.50     8.67     0  01:50        1.38
  WS02006238           JUNCTION     0.56     1.55     8.69     0  01:50        1.40
  WS02006239           JUNCTION     0.53     1.52     8.73     0  01:50        1.41
  WS02006240           JUNCTION     0.49     1.47     8.77     0  01:50        1.38
  WS02006242           JUNCTION     0.56     1.51     8.78     0  01:50        1.46
  WS02006243           JUNCTION     0.47     1.35     8.77     0  01:50        1.34
  WS02006245           JUNCTION     0.48     1.29     8.77     0  01:56        1.29
  WS02006247           JUNCTION     0.50     1.25     8.75     0  01:56        1.25
  WS02006248           JUNCTION     0.46     1.10     8.69     0  01:45        1.10
  WS02006249           JUNCTION     0.50     1.09     8.69     0  01:41        1.09
  WS02006251           JUNCTION     0.50     1.53     9.20     0  01:41        1.17
  WS02006252           JUNCTION     0.36     1.50     9.74     0  00:00        0.73
  WS02006256           JUNCTION     1.01     2.35     9.28     0  00:00        2.35
  WSF200               JUNCTION     0.18     0.29     5.52     0  03:11        0.29
  YS02001580           JUNCTION     0.12     1.05     9.59     0  01:33        0.80
  YS02001583           JUNCTION     0.16     1.14     9.64     0  01:33        0.84
  YS02001586           JUNCTION     0.23     1.13     9.30     0  01:32        1.13
  YS02001590           JUNCTION     0.34     1.40     9.26     0  01:32        1.39
  YS02001593           JUNCTION     0.27     1.38     9.24     0  01:32        1.32
  YS02001596           JUNCTION     0.36     1.72     9.14     0  01:32        1.66
  YS02001600           JUNCTION     0.42     1.87     9.00     0  01:32        1.87
  YS02001601           JUNCTION     0.61     2.06     8.90     0  01:32        2.06
  YS02001602           JUNCTION     0.52     1.87     8.77     0  01:32        1.87
  YS02001605           JUNCTION     0.49     1.78     8.68     0  01:32        1.78
  YS02001607           JUNCTION     0.48     1.68     8.53     0  01:32        1.66
  YS02001610           JUNCTION     0.53     1.68     8.48     0  01:33        1.68
  YS02001613           JUNCTION     0.49     1.70     8.54     0  01:33        1.69
  YS02001616           JUNCTION     0.42     1.61     8.52     0  01:33        1.61
  YS02001619           JUNCTION     0.40     1.61     8.54     0  01:33        1.61
  YS02001622           JUNCTION     0.39     1.62     8.52     0  01:33        1.59
  YS02001625           JUNCTION     0.66     1.78     8.38     0  01:33        1.78
  YS02001629           JUNCTION     0.51     1.85     8.40     0  01:33        1.85
  YS02001633           JUNCTION     0.59     2.08     8.53     0  01:36        2.08
  YS02001641           JUNCTION     0.58     1.96     8.40     0  01:35        1.95
  YS02001644           JUNCTION     0.57     1.92     8.35     0  01:35        1.92
  YS02001647           JUNCTION     0.37     1.81     8.42     0  01:35        1.75
  YS02001649           JUNCTION     0.41     2.05     8.44     0  01:36        1.98
  YS02001652           JUNCTION     0.31     2.16     8.76     0  01:35        1.82
  YS02001655           JUNCTION     0.25     2.20     9.05     0  01:35        1.63
  YS02001658           JUNCTION     0.18     2.30     9.44     0  01:35        1.40
  YS02001661           JUNCTION     0.18     2.46     9.86     0  01:36        1.22
  YS02001664           JUNCTION     0.06     1.69     9.61     0  01:36        0.75
  YS02001745           JUNCTION     0.09     2.35     9.87     0  01:36        0.87
  YS02001748           JUNCTION     0.17     2.27     9.35     0  01:35        1.30
  YS02001751           JUNCTION     0.21     2.20     9.08     0  01:35        1.45
  YS02001754           JUNCTION     0.28     2.20     8.81     0  01:35        1.72
  YS02001757           JUNCTION     0.45     2.21     8.47     0  01:36        2.03
  YS02001759           JUNCTION     0.39     2.21     8.57     0  01:36        2.03
  YS02001762           JUNCTION     0.37     2.15     8.55     0  01:35        2.00
  YS02001765           JUNCTION     0.35     2.10     8.55     0  01:35        1.96
  YS02001767           JUNCTION     0.35     2.03     8.52     0  01:35        1.95
  YS02001770           JUNCTION     0.36     1.95     8.44     0  01:35        1.95
  YS02001774           JUNCTION     0.43     2.05     8.47     0  01:35        2.00
  YS02001779           JUNCTION     0.26     1.68     8.37     0  01:35        1.68
  YS02001783           JUNCTION     0.26     1.66     7.81     0  01:34        1.25
  YS02001784           JUNCTION     0.27     1.45     7.52     0  01:34        1.12
  YS02001786           JUNCTION     0.23     1.19     7.22     0  01:34        0.88
  YS02001788           JUNCTION     0.16     0.62     6.60     0  01:37        0.62
  YS02001790           JUNCTION     0.19     0.73     6.37     0  01:39        0.72
  YS02001791           JUNCTION     0.12     0.44     5.91     0  01:38        0.43
  YS02001793           JUNCTION     0.07     0.30     5.13     0  02:00        0.29
  YS02001882           JUNCTION     0.33     1.83     8.55     0  01:33        1.73
  YS02001884           JUNCTION     0.43     1.93     8.55     0  01:33        1.85
  YS02001887           JUNCTION     0.50     1.93     8.47     0  01:36        1.93
  YS02001890           JUNCTION     0.53     1.81     8.32     0  01:33        1.81
  YS02001895           JUNCTION     0.30     1.75     8.50     0  01:33        1.71
  YS02001898           JUNCTION     0.31     1.77     8.51     0  01:33        1.77
  YS02001901           JUNCTION     0.43     1.87     8.48     0  01:33        1.87
  YS02001904           JUNCTION     0.41     1.77     8.40     0  01:34        1.77
  YS02001907           JUNCTION     0.73     1.96     8.25     0  01:34        1.96
  YS02001910           JUNCTION     0.53     2.08     8.58     0  01:34        1.95
  YS02001915           JUNCTION     0.34     2.00     8.72     0  01:33        2.00
  YS02001918           JUNCTION     0.20     1.81     8.88     0  01:34        1.58
  YS02001920           JUNCTION     0.27     2.14     9.15     0  01:35        1.66
  YS02001923           JUNCTION     0.15     2.03     9.29     0  01:35        1.42
  YS02001926           JUNCTION     0.18     1.90     9.35     0  01:35        1.26
  YS02001929           JUNCTION     0.11     1.78     9.47     0  01:35        1.04
  YS02006553           JUNCTION     0.73     2.09     8.38     0  01:34        2.07
  YS02006556           JUNCTION     0.71     2.21     8.52     0  01:34        2.12
  YS02006558           JUNCTION     0.75     2.29     8.56     0  01:34        2.16
  YS02006561           JUNCTION     0.16     1.51     8.17     0  01:34        0.91
  YS02163301           JUNCTION     0.54     1.96     8.48     0  01:36        1.96
  YS02163601           JUNCTION     0.63     2.07     8.47     0  01:36        2.07
  YS02164001           JUNCTION     0.56     1.99     8.44     0  01:43        1.99
  CC-1                 OUTFALL      0.00     0.00     0.00     0  00:00        0.00
  CC-2                 OUTFALL      0.00     0.00     0.00     0  00:00        0.00
  JK-1                 OUTFALL      0.00     0.00     0.00     0  00:00        0.00
  JK-2                 OUTFALL      0.00     0.00     0.00     0  00:00        0.00
  WSC                  OUTFALL      0.19     0.30     0.97     0  03:15        0.30
  CC-storage           STORAGE      1.00     1.85     7.35     0  02:20        1.85
  JK-storage           STORAGE      3.01     4.23     5.03     0  01:45        4.20
  
  
  *******************
  Node Inflow Summary
  *******************
  
  -------------------------------------------------------------------------------------------------
                                  Maximum  Maximum                  Lateral       Total        Flow
                                  Lateral    Total  Time of Max      Inflow      Inflow     Balance
                                   Inflow   Inflow   Occurrence      Volume      Volume       Error
  Node                 Type           LPS      LPS  days hr:min    10^6 ltr    10^6 ltr     Percent
  -------------------------------------------------------------------------------------------------
  WS02003060           JUNCTION     16.53   551.35     0  03:13       0.476        5.96       0.039
  WS02003066           JUNCTION      0.00   534.56     0  03:13           0        5.49       0.027
  WS02003067           JUNCTION      0.00   534.55     0  03:12           0        5.49       0.078
  WS02003069           JUNCTION      0.32   551.38     0  03:13     0.00922        5.97       0.071
  WS02003072           JUNCTION      0.00   551.21     0  03:14           0        5.97       0.125
  WS02003073           JUNCTION      1.82   552.97     0  03:14      0.0524        6.01       0.100
  WS02004401           JUNCTION      0.00   538.05     0  02:12           0         5.6       0.185
  WS02004402           JUNCTION      0.00   536.74     0  03:07           0        5.59       0.188
  WS02004403           JUNCTION      0.00   536.44     0  02:13           0        5.58       0.183
  WS02004404           JUNCTION      0.16   536.07     0  03:10     0.00467        5.57       0.160
  WS02004405           JUNCTION      0.04   536.08     0  03:11      0.0011        5.56       0.221
  WS02004406           JUNCTION      0.00   536.16     0  03:07           0        5.55       0.376
  WS02004407           JUNCTION      0.00   536.02     0  03:11           0        5.53       0.022
  WS02004409           JUNCTION      0.00   535.91     0  03:11           0        5.53       0.053
  WS02004410           JUNCTION      0.00   535.64     0  03:11           0        5.53       0.084
  WS02004411           JUNCTION      0.00   535.13     0  03:12           0        5.52       0.106
  WS02004412           JUNCTION      0.00   534.98     0  03:12           0        5.52       0.141
  WS02004413           JUNCTION      0.00   534.74     0  03:12           0        5.51       0.246
  WS02006109           JUNCTION      1.23   559.56     0  01:56      0.0354        5.64       0.127
  WS02006110           JUNCTION      0.00   561.35     0  01:56           0        5.64       0.134
  WS02006111           JUNCTION      0.00   563.44     0  03:06           0        5.63       0.014
  WS02006112           JUNCTION      0.00   543.51     0  02:39           0        5.63       0.321
  WS02006113           JUNCTION      0.00   568.13     0  01:42           0        5.63       0.036
  WS02006115           JUNCTION      0.00   550.65     0  03:24           0        5.61       0.119
  WS02006116           JUNCTION      0.00   540.50     0  02:39           0         5.6       0.050
  WS02006228           JUNCTION      0.00   556.00     0  01:56           0        5.61       0.042
  WS02006229           JUNCTION      0.00   555.49     0  02:11           0        5.62       0.107
  WS02006230           JUNCTION     10.28   592.38     0  01:50       0.296        5.62       0.061
  WS02006231           JUNCTION      0.00   576.79     0  02:36           0        5.32      -0.076
  WS02006232           JUNCTION      0.00   576.17     0  02:36           0        5.33       0.233
  WS02006234           JUNCTION      0.00   572.05     0  02:36           0        5.32      -0.237
  WS02006235           JUNCTION      0.00   565.17     0  02:16           0         5.4       0.224
  WS02006238           JUNCTION      0.00   424.81     0  02:10           0        4.28      -0.156
  WS02006239           JUNCTION      0.00   423.39     0  02:15           0        4.23      -0.105
  WS02006240           JUNCTION      0.00   420.92     0  02:15           0        4.19      -0.009
  WS02006242           JUNCTION      0.00   421.25     0  02:15           0        4.17      -0.101
  WS02006243           JUNCTION      0.00   420.53     0  02:15           0        4.16       0.057
  WS02006245           JUNCTION      0.00   419.68     0  02:40           0        4.18       0.412
  WS02006247           JUNCTION      0.00   420.25     0  02:10           0        4.18       0.024
  WS02006248           JUNCTION      0.00   421.23     0  02:10           0        4.18       0.116
  WS02006249           JUNCTION      0.00   464.59     0  05:40           0        4.49       0.354
  WS02006251           JUNCTION      0.08   405.34     0  01:41     0.00222        4.49      -0.011
  WS02006252           JUNCTION      0.00   400.00     0  00:00           0        4.48      -0.093
  WS02006256           JUNCTION      0.00   371.62     0  01:35           0        1.69      -1.093
  WSF200               JUNCTION      0.00   534.59     0  03:13           0        5.49       0.008
  YS02001580           JUNCTION      0.00   161.06     0  01:32           0     0.00491       1.839
  YS02001583           JUNCTION      0.00   264.91     0  01:33           0      0.0153      -9.615
  YS02001586           JUNCTION    874.78   874.85     0  01:42        2.31        2.32       0.071
  YS02001590           JUNCTION      0.00   318.33     0  02:02           0        1.62      -0.018
  YS02001593           JUNCTION      0.00   318.30     0  02:02           0        1.62       0.003
  YS02001596           JUNCTION      0.00   318.33     0  02:02           0        1.62      -0.000
  YS02001600           JUNCTION      0.00   318.38     0  02:02           0        1.62      -0.002
  YS02001601           JUNCTION   1594.22  1911.62     0  01:40        3.13        4.75       0.002
  YS02001602           JUNCTION      0.00   574.79     0  01:32           0        2.62       0.013
  YS02001605           JUNCTION      0.00   574.77     0  01:32           0        2.43       0.013
  YS02001607           JUNCTION      0.00   574.76     0  01:32           0        2.43       0.075
  YS02001610           JUNCTION      0.00   879.51     0  01:42           0        2.91       0.074
  YS02001613           JUNCTION      0.00   561.48     0  01:33           0        2.22       0.076
  YS02001616           JUNCTION      0.00   578.16     0  01:33           0        2.22       0.033
  YS02001619           JUNCTION   1553.89  1553.89     0  01:42         3.7        5.44      -0.000
  YS02001622           JUNCTION      0.00  1013.97     0  01:41           0        4.95      -0.008
  YS02001625           JUNCTION      0.00  1436.42     0  01:43           0         5.3       0.172
  YS02001629           JUNCTION      0.00   957.47     0  01:33           0        3.82       0.005
  YS02001633           JUNCTION   1194.49  1429.52     0  01:34        2.29        5.64       0.055
  YS02001641           JUNCTION      0.00  1429.26     0  01:34           0        5.18       0.052
  YS02001644           JUNCTION   1069.36  1921.92     0  01:34        1.99        7.17       0.039
  YS02001647           JUNCTION      0.00  1922.27     0  01:34           0        6.25       0.006
  YS02001649           JUNCTION      0.00  2177.64     0  01:34           0        8.09      -0.005
  YS02001652           JUNCTION      0.00  1057.22     0  01:37           0        1.83      -0.090
  YS02001655           JUNCTION      0.15  1056.49     0  01:37     0.00443        1.84      -0.026
  YS02001658           JUNCTION      0.00  1057.28     0  01:37           0        1.84      -0.037
  YS02001661           JUNCTION      0.00  1056.41     0  01:37           0        1.83       0.028
  YS02001664           JUNCTION   1036.67  1036.67     0  01:39        1.83        1.83      -0.038
  YS02001745           JUNCTION    675.49   757.12     0  01:35         1.1         1.1       0.166
  YS02001748           JUNCTION      0.04   839.97     0  01:35      0.0013         1.1      -0.339
  YS02001751           JUNCTION      0.01   684.75     0  01:39    0.000317        1.11       0.057
  YS02001754           JUNCTION      0.26   685.16     0  01:39     0.00749        1.13      -0.167
  YS02001757           JUNCTION      0.00  3541.01     0  01:36           0        12.6       0.027
  YS02001759           JUNCTION    934.04  1564.01     0  01:36        1.52        3.38      -0.016
  YS02001762           JUNCTION      0.00   840.48     0  01:36           0        1.86       0.002
  YS02001765           JUNCTION      0.00   841.60     0  01:36           0        1.86       0.002
  YS02001767           JUNCTION      0.54   842.31     0  01:36      0.0154        1.86      -0.006
  YS02001770           JUNCTION   1317.03  1317.03     0  01:39        2.31        2.35      -0.015
  YS02001774           JUNCTION      0.00   825.15     0  01:39           0       0.523       0.168
  YS02001779           JUNCTION      0.01   825.58     0  01:39    0.000144       0.476      -0.105
  YS02001783           JUNCTION      0.00  1171.03     0  01:36           0        4.91       0.004
  YS02001784           JUNCTION      1.06  1171.97     0  01:36      0.0305        4.94       0.010
  YS02001786           JUNCTION      0.06  1172.10     0  01:37     0.00162        4.94       0.015
  YS02001788           JUNCTION      0.07  1173.25     0  01:37     0.00204        4.94       0.006
  YS02001790           JUNCTION      0.15  1175.92     0  01:38     0.00446        4.94       0.023
  YS02001791           JUNCTION      0.00  1294.95     0  01:39           0        4.94      -0.031
  YS02001793           JUNCTION      0.00  1253.17     0  01:47           0        4.94       0.004
  YS02001882           JUNCTION      0.00   122.90     0  01:33           0      0.0132       4.242
  YS02001884           JUNCTION      0.00   148.72     0  01:33           0      0.0494       5.417
  YS02001887           JUNCTION   1022.27  1022.86     0  01:38        1.58        1.61       0.266
  YS02001890           JUNCTION      0.00  1022.29     0  01:38           0        1.57       0.313
  YS02001895           JUNCTION      0.00   568.20     0  01:34           0        1.35       0.117
  YS02001898           JUNCTION      0.00   566.12     0  01:34           0        1.34       0.001
  YS02001901           JUNCTION      0.00   563.90     0  01:34           0        1.35       0.242
  YS02001904           JUNCTION      0.00   563.54     0  01:34           0        1.35       0.195
  YS02001907           JUNCTION      0.00  2408.85     0  01:39           0        4.82       0.351
  YS02001910           JUNCTION      0.00  1723.75     0  01:40           0        3.43       0.206
  YS02001915           JUNCTION   1159.22  1723.26     0  01:40         2.2        3.48       0.043
  YS02001918           JUNCTION      0.00   676.98     0  01:34           0        1.32       0.010
  YS02001920           JUNCTION      2.87   682.37     0  01:34      0.0827         1.3       0.079
  YS02001923           JUNCTION      0.04   910.21     0  01:34     0.00109         1.2      -0.088
  YS02001926           JUNCTION      0.05  1150.64     0  01:34      0.0015        1.18      -0.052
  YS02001929           JUNCTION    559.26   895.44     0  01:35        1.15        1.16      -0.027
  YS02006553           JUNCTION      0.00   792.14     0  02:05           0        2.74       0.430
  YS02006556           JUNCTION      0.00   792.24     0  02:05           0        2.75       0.288
  YS02006558           JUNCTION   1351.61  1351.61     0  01:39        2.31        4.99       0.068
  YS02006561           JUNCTION      0.00  1182.65     0  01:34           0        4.91      -0.000
  YS02163301           JUNCTION      0.00   907.32     0  01:34           0         3.8       0.037
  YS02163601           JUNCTION      0.11  1429.66     0  01:34     0.00317        5.18       0.090
  YS02164001           JUNCTION      0.00  1429.46     0  01:34           0        5.18       0.037
  CC-1                 OUTFALL       0.00   683.00     0  00:00           0        4.74       0.000
  CC-2                 OUTFALL       0.00   683.00     0  00:00           0        4.21       0.000
  JK-1                 OUTFALL       0.00  1000.00     0  00:00           0         3.3       0.000
  JK-2                 OUTFALL       0.00  1000.00     0  00:00           0       0.064       0.000
  WSC                  OUTFALL       0.00   552.75     0  03:15           0        6.01       0.000
  CC-storage           STORAGE       0.00  3539.29     0  01:36           0        14.8      -0.204
  JK-storage           STORAGE       0.00  1222.12     0  01:48           0        5.09      -0.323
  
  
  **********************
  Node Surcharge Summary
  **********************
  
  Surcharging occurs when water rises above the top of the highest conduit.
  ---------------------------------------------------------------------
                                               Max. Height   Min. Depth
                                   Hours       Above Crown    Below Rim
  Node                 Type      Surcharged         Meters       Meters
  ---------------------------------------------------------------------
  WS02006109           JUNCTION        2.26          0.332        1.488
  WS02006110           JUNCTION        0.92          0.266        1.584
  WS02006112           JUNCTION        1.09          0.106        1.574
  WS02006228           JUNCTION        2.25          0.341        1.859
  WS02006229           JUNCTION        2.26          0.406        2.044
  WS02006230           JUNCTION        0.93          0.303        1.267
  WS02006231           JUNCTION        1.18          0.593        0.937
  WS02006232           JUNCTION        2.29          0.626        0.854
  WS02006234           JUNCTION        1.63          0.911        0.329
  WS02006235           JUNCTION        2.20          0.792        0.498
  WS02006238           JUNCTION        2.26          0.831        0.599
  WS02006239           JUNCTION        2.22          0.779        0.511
  WS02006240           JUNCTION        2.26          0.763        0.627
  WS02006242           JUNCTION        2.28          0.781        0.039
  WS02006243           JUNCTION        2.25          0.639        0.131
  WS02006245           JUNCTION        2.25          0.578        0.272
  WS02006247           JUNCTION        2.26          0.539        0.221
  WS02006248           JUNCTION        2.24          0.380        0.000
  WS02006249           JUNCTION        2.25          0.390        0.000
  WS02006251           JUNCTION        1.30          0.500        0.680
  WS02006252           JUNCTION        2.51          1.100        0.000
  WS02006256           JUNCTION        6.74          2.050        0.000
  YS02001580           JUNCTION        0.86          0.450        0.000
  YS02001583           JUNCTION        0.87          0.500        0.000
  YS02001586           JUNCTION        1.07          0.510        0.000
  YS02001590           JUNCTION        1.16          0.750        0.000
  YS02001593           JUNCTION        1.16          0.757        0.083
  YS02001596           JUNCTION        1.28          0.995        0.075
  YS02001600           JUNCTION        1.46          1.190        0.000
  YS02001601           JUNCTION        1.73          1.440        0.000
  YS02001602           JUNCTION        1.66          1.270        0.000
  YS02001605           JUNCTION        1.63          1.180        0.000
  YS02001607           JUNCTION        1.17          0.680        0.000
  YS02001610           JUNCTION        1.21          0.680        0.000
  YS02001613           JUNCTION        1.17          0.700        0.000
  YS02001616           JUNCTION        1.12          0.610        0.000
  YS02001619           JUNCTION        1.11          0.610        0.000
  YS02001622           JUNCTION        1.11          0.620        0.000
  YS02001625           JUNCTION        1.31          0.780        0.000
  YS02001629           JUNCTION        1.04          0.470        0.000
  YS02001633           JUNCTION        1.36          1.060        0.000
  YS02001641           JUNCTION        1.32          0.959        0.141
  YS02001644           JUNCTION        1.30          0.920        0.000
  YS02001647           JUNCTION        1.08          0.808        0.092
  YS02001649           JUNCTION        1.25          1.050        0.000
  YS02001652           JUNCTION        1.01          1.130        0.000
  YS02001655           JUNCTION        0.80          1.200        0.000
  YS02001658           JUNCTION        0.39          1.300        0.000
  YS02001661           JUNCTION        0.12          1.390        0.000
  YS02001664           JUNCTION        0.01          0.686        0.624
  YS02001745           JUNCTION        0.01          1.350        0.000
  YS02001748           JUNCTION        0.29          1.190        0.000
  YS02001751           JUNCTION        0.58          1.200        0.000
  YS02001754           JUNCTION        0.91          1.150        0.000
  YS02001757           JUNCTION        1.34          1.210        0.000
  YS02001759           JUNCTION        1.23          1.206        0.004
  YS02001762           JUNCTION        1.19          1.150        0.000
  YS02001765           JUNCTION        1.14          1.100        0.000
  YS02001767           JUNCTION        1.10          1.030        0.000
  YS02001770           JUNCTION        1.05          0.920        0.000
  YS02001774           JUNCTION        1.17          1.050        0.000
  YS02001779           JUNCTION        0.88          0.680        0.000
  YS02001783           JUNCTION        0.73          0.864        0.736
  YS02001784           JUNCTION        0.70          0.648        0.842
  YS02001786           JUNCTION        0.58          0.389        1.041
  YS02001882           JUNCTION        0.66          0.830        0.000
  YS02001884           JUNCTION        0.67          0.870        0.000
  YS02001887           JUNCTION        0.71          0.884        0.066
  YS02001890           JUNCTION        0.73          0.760        0.000
  YS02001895           JUNCTION        0.65          0.750        0.000
  YS02001898           JUNCTION        0.64          0.740        0.000
  YS02001901           JUNCTION        0.70          0.870        0.000
  YS02001904           JUNCTION        0.69          0.767        0.083
  YS02001907           JUNCTION        0.95          0.950        0.000
  YS02001910           JUNCTION        0.76          1.076        0.024
  YS02001915           JUNCTION        0.66          1.000        0.000
  YS02001918           JUNCTION        0.57          0.810        0.000
  YS02001920           JUNCTION        0.58          1.140        0.000
  YS02001923           JUNCTION        0.20          0.820        0.000
  YS02001926           JUNCTION        0.24          0.900        0.000
  YS02001929           JUNCTION        0.03          0.780        0.000
  YS02006553           JUNCTION        0.99          1.093        0.097
  YS02006556           JUNCTION        0.85          1.169        0.181
  YS02006558           JUNCTION        0.84          1.192        0.208
  YS02006561           JUNCTION        0.53          0.705        0.445
  YS02163301           JUNCTION        1.34          0.961        0.069
  YS02163601           JUNCTION        1.40          1.071        0.009
  YS02164001           JUNCTION        1.32          0.987        0.113
  
  
  *********************
  Node Flooding Summary
  *********************
  
  Flooding refers to all water that overflows a node, whether it ponds or not.
  --------------------------------------------------------------------------
                                                             Total   Maximum
                                 Maximum   Time of Max       Flood    Ponded
                        Hours       Rate    Occurrence      Volume     Depth
  Node                 Flooded       LPS   days hr:min    10^6 ltr    Meters
  --------------------------------------------------------------------------
  WS02006248              0.02     18.62      0  02:05       0.001     0.000
  WS02006249              1.25     85.25      0  01:41       0.293     0.000
  WS02006252              0.01    245.63      0  00:00       0.000     0.000
  WS02006256              1.57    365.87      0  01:35       0.550     0.000
  YS02001580              0.01    107.20      0  01:33       0.001     0.000
  YS02001583              0.01    230.39      0  01:33       0.000     0.000
  YS02001586              0.71    557.28      0  01:42       0.681     0.000
  YS02001590              0.01      2.30      0  01:33       0.000     0.000
  YS02001600              0.01      3.74      0  01:32       0.000     0.000
  YS02001601              0.98   1513.82      0  01:40       2.132     0.000
  YS02001602              0.90     62.09      0  02:06       0.183     0.000
  YS02001605              0.01      2.52      0  01:33       0.000     0.000
  YS02001607              0.01     62.54      0  01:32       0.000     0.000
  YS02001610              0.78    879.17      0  01:42       1.175     0.000
  YS02001613              0.01     10.68      0  01:33       0.000     0.000
  YS02001616              0.01     69.09      0  01:33       0.000     0.000
  YS02001619              0.01    152.55      0  01:33       0.000     0.000
  YS02001622              0.01    314.41      0  01:33       0.001     0.000
  YS02001625              0.75   1435.99      0  01:43       1.930     0.000
  YS02001629              0.18    402.00      0  01:37       0.129     0.000
  YS02001633              0.01      0.32      0  01:36       0.000     0.000
  YS02001644              0.31   1487.94      0  01:39       0.904     0.000
  YS02001649              0.01    218.33      0  01:36       0.004     0.000
  YS02001652              0.01     56.39      0  01:36       0.000     0.000
  YS02001655              0.01    484.45      0  01:35       0.001     0.000
  YS02001658              0.01    486.28      0  01:36       0.001     0.000
  YS02001661              0.01    331.24      0  01:36       0.000     0.000
  YS02001745              0.01    336.14      0  01:36       0.000     0.000
  YS02001748              0.01    506.47      0  01:36       0.002     0.000
  YS02001751              0.01    308.46      0  01:35       0.001     0.000
  YS02001754              0.01     83.69      0  01:35       0.000     0.000
  YS02001757              0.01     38.83      0  01:36       0.000     0.000
  YS02001762              0.01     97.81      0  01:35       0.000     0.000
  YS02001765              0.01      4.55      0  01:35       0.000     0.000
  YS02001767              0.01    156.78      0  01:35       0.000     0.000
  YS02001770              0.04    279.06      0  01:35       0.004     0.000
  YS02001774              0.01    213.78      0  01:35       0.000     0.000
  YS02001779              0.28    825.36      0  01:39       0.455     0.000
  YS02001882              0.01     31.56      0  01:33       0.000     0.000
  YS02001884              0.01     33.43      0  01:33       0.000     0.000
  YS02001890              0.23    503.87      0  01:38       0.219     0.000
  YS02001895              0.01     81.65      0  01:33       0.000     0.000
  YS02001898              0.01    223.64      0  01:33       0.000     0.000
  YS02001901              0.01     13.54      0  01:33       0.000     0.000
  YS02001907              0.50   2408.57      0  01:39       2.119     0.000
  YS02001915              0.01    218.34      0  01:33       0.000     0.000
  YS02001918              0.01    255.87      0  01:35       0.003     0.000
  YS02001920              0.01     16.44      0  01:35       0.000     0.000
  YS02001923              0.01    416.49      0  01:35       0.003     0.000
  YS02001926              0.01    908.84      0  01:35       0.004     0.000
  YS02001929              0.01    732.85      0  01:35       0.002     0.000
  
  
  **********************
  Storage Volume Summary
  **********************
  
  ------------------------------------------------------------------------------------------------
                         Average    Avg   Evap  Exfil     Maximum    Max    Time of Max    Maximum
                          Volume   Pcnt   Pcnt   Pcnt      Volume   Pcnt     Occurrence    Outflow
  Storage Unit           1000 m³   Full   Loss   Loss     1000 m³   Full    days hr:min        LPS
  ------------------------------------------------------------------------------------------------
  CC-storage               2.789   43.5    0.0    0.0       5.142   80.2       0  02:20    1783.53
  JK-storage               0.151   51.8    0.0    0.0       0.212   72.9       0  01:45    2300.00
  
  
  ***********************
  Outfall Loading Summary
  ***********************
  
  -----------------------------------------------------------
                         Flow       Avg       Max       Total
                         Freq      Flow      Flow      Volume
  Outfall Node           Pcnt       LPS       LPS    10^6 ltr
  -----------------------------------------------------------
  CC-1                  25.67    683.00    683.00       4.743
  CC-2                  24.55    683.00    683.00       4.205
  JK-1                  13.39   1000.00   1000.00       3.300
  JK-2                   0.19   1000.00   1000.00       0.064
  WSC                   99.96    271.03    552.75       6.006
  -----------------------------------------------------------
  System                32.75   3637.03   3366.23      18.318
  
  
  ********************
  Link Flow Summary
  ********************
  
  -----------------------------------------------------------------------------
                                 Maximum  Time of Max   Maximum    Max/    Max/
                                  |Flow|   Occurrence   |Veloc|    Full    Full
  Link                 Type          LPS  days hr:min     m/sec    Flow   Depth
  -----------------------------------------------------------------------------
  1                    CONDUIT    552.75     0  03:15      2.82    0.19    0.30
  WS02003060WS02003069 CONDUIT    551.06     0  03:13      1.64    0.22    0.34
  WS02003066WSF200     CONDUIT    534.59     0  03:13      2.85    0.09    0.22
  WS02003067WS02003066 CONDUIT    534.56     0  03:13      1.20    0.17    0.41
  WS02003069WS02003072 CONDUIT    551.21     0  03:14      1.37    0.27    0.39
  WS02003072WS02003073 CONDUIT    551.15     0  03:14      1.43    1.19    0.37
  WS02004401WS02004402 CONDUIT    536.74     0  03:07      0.98    0.64    0.86
  WS02004402WS02004403 CONDUIT    536.44     0  02:13      0.97    0.77    0.88
  WS02004403WS02004404 CONDUIT    535.91     0  03:10      0.92    0.39    0.93
  WS02004404WS02004405 CONDUIT    536.05     0  03:11      1.08    5.25    0.96
  WS02004405WS02004406 CONDUIT    536.16     0  03:07      0.99    1.06    0.96
  WS02004406WS02004407 CONDUIT    536.02     0  03:11      1.04    0.24    0.63
  WS02004407WS02004409 CONDUIT    535.91     0  03:11      1.57    0.19    0.48
  WS02004409WS02004410 CONDUIT    535.64     0  03:11      1.05    0.69    0.67
  WS02004410WS02004411 CONDUIT    535.13     0  03:12      1.01    0.73    0.68
  WS02004411WS02004412 CONDUIT    534.98     0  03:12      0.98    0.76    0.69
  WS02004412WS02004413 CONDUIT    534.74     0  03:12      0.82    0.36    0.78
  WS02004413WS02003067 CONDUIT    534.55     0  03:12      1.11    0.23    0.59
  WS02006109WS02006110 CONDUIT    561.35     0  01:56      1.12    1.08    1.00
  WS02006110WS02006113 CONDUIT    568.13     0  01:42      1.38    0.52    0.79
  WS02006111WS02006112 CONDUIT    543.51     0  02:39      1.81    0.26    0.67
  WS02006112WS02006115 CONDUIT    550.65     0  03:24      0.88    0.33    0.87
  WS02006113WS02006111 CONDUIT    563.44     0  03:06      2.47    0.68    0.46
  WS02006115WS02006116 CONDUIT    540.50     0  02:39      1.14    0.69    0.76
  WS02006116WS02004401 CONDUIT    538.05     0  02:12      0.99    0.74    0.84
  WS02006228WS02006109 CONDUIT    558.33     0  01:56      1.11    2.44    1.00
  WS02006229WS02006228 CONDUIT    556.00     0  01:56      1.14    1.84    1.00
  WS02006230WS02006229 CONDUIT    555.49     0  02:11      1.44   12.36    1.00
  WS02006231WS02006230 CONDUIT    582.10     0  01:50      1.59    8.83    1.00
  WS02006232WS02006231 CONDUIT    576.79     0  02:36      1.51    1.21    1.00
  WS02006234WS02006232 CONDUIT    576.17     0  02:36      1.50    1.17    1.00
  WS02006235WS02006234 CONDUIT    572.05     0  02:36      1.49    6.04    1.00
  WS02006238WS02006235 CONDUIT    425.93     0  02:10      1.56    0.95    1.00
  WS02006239WS02006238 CONDUIT    424.81     0  02:10      1.10    1.36    1.00
  WS02006240WS02006239 CONDUIT    423.39     0  02:15      1.31    1.33    1.00
  WS02006242WS02006240 CONDUIT    420.92     0  02:15      1.13    1.67    1.00
  WS02006243WS02006242 CONDUIT    421.25     0  02:15      1.40    0.90    1.00
  WS02006245WS02006243 CONDUIT    420.53     0  02:15      1.45    1.24    1.00
  WS02006247WS02006245 CONDUIT    419.68     0  02:40      1.43    3.33    1.00
  WS02006248WS02006247 CONDUIT    420.25     0  02:10      1.44    0.91    1.00
  WS02006249WS02006248 CONDUIT    421.23     0  02:10      1.37    2.31    1.00
  WS02006251WS02006249 CONDUIT    464.59     0  05:40      1.99    1.34    1.00
  WS02006252WS02006251 CONDUIT    405.26     0  01:41     26.27    1.49    1.00
  WS02006256WS02006235 CONDUIT    289.21     0  01:33      4.23    3.06    1.00
  WSF200WS02003060     CONDUIT    534.82     0  03:13      2.06    0.12    0.28
  YS02001580YS02001583 CONDUIT    161.06     0  01:32      0.88    0.62    1.00
  YS02001583YS02001586 CONDUIT    195.23     0  01:33      0.89    0.30    1.00
  YS02001586YS02001590 CONDUIT    318.33     0  02:02      1.27    0.56    1.00
  YS02001590YS02001593 CONDUIT    318.30     0  02:02      1.13    2.00    1.00
  YS02001593YS02001596 CONDUIT    318.33     0  02:02      1.72    0.50    1.00
  YS02001596YS02001600 CONDUIT    318.38     0  02:02      1.23    0.62    1.00
  YS02001600YS02001601 CONDUIT    318.54     0  02:02      1.13    0.55    1.00
  YS02001601YS02001602 CONDUIT    574.79     0  01:32      2.03    2.08    1.00
  YS02001602YS02001605 CONDUIT    574.77     0  01:32      2.03   12.16    1.00
  YS02001605YS02001607 CONDUIT    574.76     0  01:32      2.03    3.15    1.00
  YS02001607YS02001610 CONDUIT    553.99     0  01:33      0.71    0.53    1.00
  YS02001610YS02001613 CONDUIT    561.48     0  01:33      0.71    0.65    1.00
  YS02001613YS02001616 CONDUIT    578.16     0  01:33      0.74    0.50    1.00
  YS02001616YS02001619 CONDUIT    543.26     0  01:42      0.69    0.94    1.00
  YS02001619YS02001622 CONDUIT   1013.97     0  01:41      1.29    1.49    1.00
  YS02001622YS02001625 CONDUIT   1014.08     0  01:41      1.29    0.54    1.00
  YS02001625YS02001629 CONDUIT    957.47     0  01:33      1.22    0.46    1.00
  YS02001629YS02163301 CONDUIT    907.32     0  01:34      1.16    1.12    1.00
  YS02001633YS02163601 CONDUIT   1429.55     0  01:34      1.82    1.50    1.00
  YS02001641YS02001644 CONDUIT   1429.29     0  01:34      1.82    4.62    1.00
  YS02001644YS02001647 CONDUIT   1922.27     0  01:34      2.45    1.13    1.00
  YS02001647YS02001649 CONDUIT   1923.55     0  01:34      2.45    1.02    1.00
  YS02001649YS02001757 CONDUIT   2176.32     0  01:34      2.77    1.32    1.00
  YS02001652YS02001649 CONDUIT   1056.11     0  01:37      1.34    0.52    1.00
  YS02001655YS02001652 CONDUIT   1057.22     0  01:37      1.55    0.51    1.00
  YS02001658YS02001655 CONDUIT   1056.34     0  01:37      2.04    0.45    1.00
  YS02001661YS02001658 CONDUIT   1057.28     0  01:37      2.42    0.41    1.00
  YS02001664YS02001661 CONDUIT   1056.41     0  01:37      2.54    0.33    1.00
  YS02001745YS02001748 CONDUIT    684.17     0  01:39      2.38    0.26    1.00
  YS02001748YS02001751 CONDUIT    684.74     0  01:39      1.87    0.35    1.00
  YS02001751YS02001754 CONDUIT    684.90     0  01:39      1.56    0.33    1.00
  YS02001754YS02001757 CONDUIT    684.78     0  01:39      0.87    0.28    1.00
  YS02001757CaochengTiaoxuchi CONDUIT   3539.29     0  01:36      4.51    1.53    1.00
  YS02001759YS02001757 CONDUIT   1563.93     0  01:36      1.99    1.11    1.00
  YS02001762YS02001759 CONDUIT    840.03     0  01:36      1.07    0.97    1.00
  YS02001765YS02001762 CONDUIT    840.48     0  01:36      1.07    0.79    1.00
  YS02001767YS02001765 CONDUIT    841.60     0  01:36      1.07    1.06    1.00
  YS02001770YS02001767 CONDUIT    841.78     0  01:36      1.07    3.33    1.00
  YS02001774YS02001770 CONDUIT    825.15     0  01:39      1.05    0.53    1.00
  YS02001779YS02001774 CONDUIT    825.57     0  01:39      1.05    0.42    1.00
  YS02001783YS02001784 CONDUIT   1170.91     0  01:36      2.33    1.61    1.00
  YS02001784YS02001785 CONDUIT   1172.04     0  01:37      2.33    2.73    1.00
  YS02001786YS02001788 CONDUIT   1173.18     0  01:37      2.49    2.26    0.89
  YS02001788YS02001790 CONDUIT   1175.77     0  01:38      2.72    0.87    0.84
  YS02001790YS02001791 CONDUIT   1294.95     0  01:39      3.44    1.41    0.71
  YS02001791YS02001793 CONDUIT   1253.17     0  01:47      6.51    0.54    0.44
  YS02001793JiankangQianchi CONDUIT   1222.12     0  01:48      2.36    0.10    0.65
  YS02001882YS02001884 CONDUIT    122.90     0  01:33      0.18    0.14    1.00
  YS02001884YS02001887 CONDUIT    148.72     0  01:33      0.19    0.20    1.00
  YS02001887YS02001890 CONDUIT   1022.29     0  01:38      1.30    1.75    1.00
  YS02001890YS02001895 CONDUIT    568.20     0  01:34      0.72    0.26    1.00
  YS02001895YS02001898 CONDUIT    566.12     0  01:34      0.72    0.98    1.00
  YS02001898YS02001901 CONDUIT    563.90     0  01:34      0.72    0.36    1.00
  YS02001901YS02001904 CONDUIT    563.54     0  01:34      0.72    0.87    1.00
  YS02001904YS02001907 CONDUIT    563.75     0  01:34      0.72    0.20    1.00
  YS02001907YS02006553 CONDUIT    792.14     0  02:05      0.88    0.93    1.00
  YS02001910YS02001907 CONDUIT   1723.73     0  01:40      2.19    0.97    1.00
  YS02001915YS02001910 CONDUIT   1723.75     0  01:40      2.19    0.86    1.00
  YS02001918YS02001915 CONDUIT    676.98     0  01:34      0.86    0.37    1.00
  YS02001920YS02001918 CONDUIT    679.50     0  01:34      0.87    0.66    1.00
  YS02001923YS02001920 CONDUIT    691.63     0  01:34      0.94    0.31    1.00
  YS02001926YS02001923 CONDUIT    921.99     0  01:35      1.37    1.32    1.00
  YS02001929YS02001926 CONDUIT    607.63     0  01:35      1.22    0.29    1.00
  YS02006553YS02006556 CONDUIT    792.24     0  02:05      1.01    0.68    1.00
  YS02006556YS02006558 CONDUIT    793.24     0  02:05      1.01    0.63    1.00
  YS02006558YS02006561 CONDUIT   1182.65     0  01:34      4.18    2.61    1.00
  YS02006561YS02001783 CONDUIT   1171.03     0  01:36      2.33    0.61    1.00
  YS02163301YS02001633 CONDUIT    907.22     0  01:34      1.16    0.85    1.00
  YS02163601YS02164001 CONDUIT   1429.46     0  01:34      1.82    1.27    1.00
  YS02164001YS02001641 CONDUIT   1429.26     0  01:34      1.82    1.95    1.00
  CC-R1                PUMP       683.00     0  00:00              1.00
  CC-R2                PUMP       683.00     0  00:00              1.00
  CC-S1                PUMP       200.00     0  00:00              1.00
  CC-S2                PUMP       200.00     0  00:00              1.00
  JK-R1                PUMP      1000.00     0  00:00              1.00
  JK-R2                PUMP      1000.00     0  00:00              1.00
  JK-S                 PUMP       300.00     0  00:00              1.00
  
  
  ***************************
  Flow Classification Summary
  ***************************
  
  -------------------------------------------------------------------------------------
                      Adjusted    ---------- Fraction of Time in Flow Class ---------- 
                       /Actual         Up    Down  Sub   Sup   Up    Down  Norm  Inlet 
  Conduit               Length    Dry  Dry   Dry   Crit  Crit  Crit  Crit  Ltd   Ctrl  
  -------------------------------------------------------------------------------------
  1                       1.00   0.00  0.00  0.00  0.00  1.00  0.00  0.00  0.39  0.00
  WS02003060WS02003069    1.00   0.00  0.00  0.00  0.98  0.02  0.00  0.00  0.68  0.00
  WS02003066WSF200        1.00   0.13  0.00  0.00  0.00  0.87  0.00  0.00  0.74  0.00
  WS02003067WS02003066    1.00   0.10  0.02  0.00  0.88  0.00  0.00  0.00  0.00  0.00
  WS02003069WS02003072    1.00   0.00  0.00  0.00  0.99  0.01  0.00  0.00  0.70  0.00
  WS02003072WS02003073    1.00   0.00  0.00  0.00  0.00  0.00  0.00  1.00  0.00  0.00
  WS02004401WS02004402    1.00   0.02  0.00  0.00  0.98  0.00  0.00  0.00  0.00  0.00
  WS02004402WS02004403    1.00   0.02  0.00  0.00  0.97  0.00  0.00  0.00  0.00  0.00
  WS02004403WS02004404    1.00   0.00  0.03  0.00  0.97  0.00  0.00  0.00  0.00  0.00
  WS02004404WS02004405    1.00   0.00  0.00  0.00  1.00  0.00  0.00  0.00  0.01  0.00
  WS02004405WS02004406    1.00   0.00  0.00  0.00  1.00  0.00  0.00  0.00  0.00  0.00
  WS02004406WS02004407    1.00   0.00  0.05  0.00  0.95  0.00  0.00  0.00  0.00  0.00
  WS02004407WS02004409    1.00   0.05  0.00  0.00  0.94  0.01  0.00  0.00  0.94  0.00
  WS02004409WS02004410    1.00   0.05  0.00  0.00  0.95  0.00  0.00  0.00  0.03  0.00
  WS02004410WS02004411    1.00   0.05  0.00  0.00  0.95  0.00  0.00  0.00  0.01  0.00
  WS02004411WS02004412    1.00   0.05  0.00  0.00  0.95  0.00  0.00  0.00  0.00  0.00
  WS02004412WS02004413    1.00   0.05  0.00  0.00  0.94  0.00  0.00  0.00  0.01  0.00
  WS02004413WS02003067    1.00   0.06  0.04  0.00  0.00  0.00  0.90  0.00  0.00  0.00
  WS02006109WS02006110    1.00   0.00  0.01  0.00  0.98  0.00  0.01  0.00  0.00  0.00
  WS02006110WS02006113    1.00   0.01  0.01  0.00  0.98  0.00  0.00  0.00  0.00  0.00
  WS02006111WS02006112    1.00   0.02  0.00  0.00  0.98  0.00  0.00  0.00  0.98  0.00
  WS02006112WS02006115    1.00   0.02  0.00  0.00  0.97  0.00  0.00  0.00  0.00  0.00
  WS02006113WS02006111    1.00   0.02  0.00  0.00  0.00  0.98  0.00  0.00  0.15  0.00
  WS02006115WS02006116    1.00   0.02  0.00  0.00  0.97  0.00  0.00  0.01  0.00  0.00
  WS02006116WS02004401    1.00   0.02  0.00  0.00  0.98  0.00  0.00  0.00  0.00  0.00
  WS02006228WS02006109    1.00   0.00  0.00  0.00  1.00  0.00  0.00  0.00  0.00  0.00
  WS02006229WS02006228    1.00   0.00  0.00  0.00  0.99  0.00  0.00  0.01  0.00  0.00
  WS02006230WS02006229    1.00   0.00  0.00  0.00  0.99  0.00  0.00  0.01  0.01  0.00
  WS02006231WS02006230    1.00   0.00  0.00  0.00  0.29  0.00  0.70  0.00  0.00  0.00
  WS02006232WS02006231    1.00   0.00  0.00  0.00  0.99  0.00  0.01  0.00  0.00  0.00
  WS02006234WS02006232    1.00   0.00  0.00  0.00  1.00  0.00  0.00  0.00  0.08  0.00
  WS02006235WS02006234    1.00   0.00  0.00  0.00  0.88  0.00  0.12  0.00  0.00  0.00
  WS02006238WS02006235    1.00   0.00  0.00  0.00  1.00  0.00  0.00  0.00  0.00  0.00
  WS02006239WS02006238    1.00   0.00  0.00  0.00  1.00  0.00  0.00  0.00  0.18  0.00
  WS02006240WS02006239    1.00   0.00  0.00  0.00  0.71  0.00  0.00  0.29  0.04  0.00
  WS02006242WS02006240    1.00   0.00  0.00  0.00  0.99  0.00  0.01  0.00  0.00  0.00
  WS02006243WS02006242    1.00   0.00  0.00  0.00  0.98  0.00  0.00  0.01  0.48  0.00
  WS02006245WS02006243    1.00   0.00  0.00  0.00  0.81  0.00  0.00  0.19  0.02  0.00
  WS02006247WS02006245    1.00   0.00  0.00  0.00  0.98  0.00  0.00  0.02  0.00  0.00
  WS02006248WS02006247    1.00   0.00  0.00  0.00  0.99  0.00  0.00  0.01  0.37  0.00
  WS02006249WS02006248    1.00   0.00  0.00  0.00  0.52  0.00  0.48  0.00  0.00  0.00
  WS02006251WS02006249    1.00   0.00  0.00  0.00  0.99  0.01  0.00  0.00  0.49  0.00
  WS02006252WS02006251    1.00   0.00  0.50  0.00  0.16  0.00  0.34  0.00  0.00  0.00
  WS02006256WS02006235    1.00   0.00  0.00  0.00  0.99  0.01  0.00  0.00  0.00  0.00
  WSF200WS02003060        1.00   0.00  0.13  0.00  0.24  0.63  0.00  0.00  0.46  0.00
  YS02001580YS02001583    1.00   0.19  0.57  0.00  0.24  0.00  0.00  0.00  0.67  0.00
  YS02001583YS02001586    1.00   0.41  0.30  0.00  0.29  0.00  0.00  0.00  0.67  0.00
  YS02001586YS02001590    1.00   0.13  0.00  0.00  0.44  0.04  0.00  0.40  0.32  0.00
  YS02001590YS02001593    1.00   0.13  0.01  0.00  0.16  0.00  0.71  0.00  0.00  0.00
  YS02001593YS02001596    1.00   0.13  0.00  0.00  0.18  0.01  0.00  0.67  0.02  0.00
  YS02001596YS02001600    1.00   0.13  0.00  0.00  0.23  0.01  0.00  0.63  0.03  0.00
  YS02001600YS02001601    1.00   0.13  0.01  0.00  0.86  0.00  0.00  0.00  0.58  0.00
  YS02001601YS02001602    1.00   0.13  0.01  0.00  0.87  0.00  0.00  0.00  0.00  0.00
  YS02001602YS02001605    1.00   0.13  0.00  0.00  0.87  0.00  0.00  0.00  0.00  0.00
  YS02001605YS02001607    1.00   0.13  0.00  0.00  0.87  0.00  0.00  0.00  0.00  0.00
  YS02001607YS02001610    1.00   0.13  0.01  0.00  0.86  0.00  0.00  0.00  0.01  0.00
  YS02001610YS02001613    1.00   0.13  0.00  0.00  0.87  0.00  0.00  0.00  0.00  0.00
  YS02001613YS02001616    1.00   0.13  0.00  0.00  0.87  0.00  0.00  0.00  0.00  0.00
  YS02001616YS02001619    1.00   0.13  0.00  0.00  0.87  0.00  0.00  0.00  0.00  0.00
  YS02001619YS02001622    1.00   0.13  0.00  0.00  0.87  0.00  0.00  0.00  0.28  0.00
  YS02001622YS02001625    1.00   0.13  0.00  0.00  0.87  0.00  0.00  0.00  0.03  0.00
  YS02001625YS02001629    1.00   0.13  0.04  0.00  0.20  0.00  0.63  0.00  0.00  0.00
  YS02001629YS02163301    1.00   0.14  0.01  0.00  0.85  0.00  0.00  0.00  0.00  0.00
  YS02001633YS02163601    1.00   0.00  0.01  0.00  0.99  0.00  0.00  0.00  0.14  0.00
  YS02001641YS02001644    1.00   0.00  0.01  0.00  0.99  0.00  0.00  0.00  0.00  0.00
  YS02001644YS02001647    1.00   0.00  0.16  0.00  0.84  0.00  0.00  0.00  0.00  0.00
  YS02001647YS02001649    1.00   0.00  0.16  0.00  0.60  0.24  0.00  0.00  0.56  0.00
  YS02001649YS02001757    1.00   0.00  0.00  0.00  0.90  0.10  0.00  0.00  0.41  0.00
  YS02001652YS02001649    1.00   0.00  0.00  0.00  0.97  0.03  0.00  0.00  0.71  0.00
  YS02001655YS02001652    1.00   0.00  0.00  0.00  0.23  0.00  0.00  0.76  0.03  0.00
  YS02001658YS02001655    1.00   0.00  0.14  0.00  0.72  0.14  0.00  0.00  0.64  0.00
  YS02001661YS02001658    1.00   0.14  0.00  0.00  0.56  0.31  0.00  0.00  0.68  0.00
  YS02001664YS02001661    1.00   0.13  0.00  0.00  0.78  0.09  0.00  0.00  0.84  0.00
  YS02001745YS02001748    1.00   0.00  0.00  0.00  0.16  0.01  0.00  0.83  0.05  0.00
  YS02001748YS02001751    1.00   0.00  0.00  0.00  0.88  0.12  0.00  0.00  0.75  0.00
  YS02001751YS02001754    1.00   0.00  0.00  0.00  0.23  0.00  0.00  0.77  0.03  0.00
  YS02001754YS02001757    1.00   0.00  0.00  0.00  1.00  0.00  0.00  0.00  0.76  0.00
  YS02001757CaochengTiaoxuchi    1.00   0.00  0.00  0.00  1.00  0.00  0.00  0.00  0.59  0.00
  YS02001759YS02001757    1.00   0.00  0.00  0.00  0.98  0.02  0.00  0.00  0.51  0.00
  YS02001762YS02001759    1.00   0.00  0.00  0.00  1.00  0.00  0.00  0.00  0.04  0.00
  YS02001765YS02001762    1.00   0.00  0.00  0.00  1.00  0.00  0.00  0.00  0.64  0.00
  YS02001767YS02001765    1.00   0.00  0.00  0.00  1.00  0.00  0.00  0.00  0.01  0.00
  YS02001770YS02001767    1.00   0.00  0.00  0.00  1.00  0.00  0.00  0.00  0.00  0.00
  YS02001774YS02001770    1.00   0.00  0.13  0.00  0.71  0.00  0.16  0.00  0.02  0.00
  YS02001779YS02001774    1.00   0.00  0.00  0.00  1.00  0.00  0.00  0.00  0.74  0.00
  YS02001783YS02001784    1.00   0.00  0.16  0.00  0.84  0.00  0.00  0.00  0.55  0.00
  YS02001784YS02001785    1.00   0.00  0.00  0.00  1.00  0.00  0.00  0.00  0.15  0.00
  YS02001786YS02001788    1.00   0.00  0.00  0.00  0.79  0.21  0.00  0.00  0.00  0.00
  YS02001788YS02001790    1.00   0.00  0.00  0.00  0.21  0.79  0.00  0.00  0.78  0.00
  YS02001790YS02001791    1.00   0.00  0.00  0.00  0.01  0.99  0.00  0.00  0.16  0.00
  YS02001791YS02001793    1.00   0.00  0.00  0.00  0.00  1.00  0.00  0.00  0.01  0.00
  YS02001793JiankangQianchi    1.00   0.00  0.00  0.00  0.99  0.01  0.00  0.00  0.92  0.00
  YS02001882YS02001884    1.00   0.15  0.01  0.00  0.85  0.00  0.00  0.00  0.00  0.00
  YS02001884YS02001887    1.00   0.06  0.05  0.00  0.89  0.00  0.00  0.00  0.00  0.00
  YS02001887YS02001890    1.00   0.00  0.00  0.00  0.97  0.00  0.03  0.00  0.00  0.00
  YS02001890YS02001895    1.00   0.00  0.15  0.00  0.85  0.00  0.00  0.00  0.00  0.00
  YS02001895YS02001898    1.00   0.15  0.00  0.00  0.83  0.00  0.01  0.00  0.00  0.00
  YS02001898YS02001901    1.00   0.16  0.00  0.00  0.84  0.00  0.00  0.00  0.00  0.00
  YS02001901YS02001904    1.00   0.16  0.00  0.00  0.84  0.00  0.00  0.00  0.00  0.00
  YS02001904YS02001907    1.00   0.00  0.15  0.00  0.84  0.00  0.00  0.00  0.00  0.00
  YS02001907YS02006553    1.00   0.00  0.02  0.00  0.98  0.00  0.00  0.00  0.00  0.00
  YS02001910YS02001907    1.00   0.00  0.00  0.00  0.97  0.00  0.00  0.03  0.12  0.00
  YS02001915YS02001910    1.00   0.00  0.00  0.00  0.97  0.03  0.00  0.00  0.13  0.00
  YS02001918YS02001915    1.00   0.00  0.01  0.00  0.98  0.02  0.00  0.00  0.72  0.00
  YS02001920YS02001918    1.00   0.00  0.01  0.00  0.99  0.00  0.00  0.00  0.00  0.00
  YS02001923YS02001920    1.00   0.00  0.00  0.00  1.00  0.00  0.00  0.00  0.90  0.00
  YS02001926YS02001923    1.00   0.00  0.07  0.00  0.08  0.00  0.84  0.00  0.00  0.00
  YS02001929YS02001926    1.00   0.00  0.13  0.00  0.87  0.00  0.00  0.00  0.80  0.00
  YS02006553YS02006556    1.00   0.01  0.00  0.00  0.99  0.00  0.00  0.00  0.03  0.00
  YS02006556YS02006558    1.00   0.00  0.00  0.00  1.00  0.00  0.00  0.00  0.00  0.00
  YS02006558YS02006561    1.00   0.16  0.00  0.00  0.08  0.76  0.00  0.00  0.18  0.00
  YS02006561YS02001783    1.00   0.16  0.00  0.00  0.11  0.72  0.00  0.00  0.66  0.00
  YS02163301YS02001633    1.00   0.00  0.14  0.00  0.86  0.00  0.00  0.00  0.00  0.00
  YS02163601YS02164001    1.00   0.00  0.08  0.00  0.92  0.00  0.00  0.00  0.00  0.00
  YS02164001YS02001641    1.00   0.01  0.07  0.00  0.92  0.00  0.00  0.00  0.05  0.00
  
  
  *************************
  Conduit Surcharge Summary
  *************************
  
  ----------------------------------------------------------------------------
                                                           Hours        Hours 
                         --------- Hours Full --------   Above Full   Capacity
  Conduit                Both Ends  Upstream  Dnstream   Normal Flow   Limited
  ----------------------------------------------------------------------------
  WS02003072WS02003073        0.01      0.01      0.01      1.72         0.01
  WS02004404WS02004405        0.01      0.01      0.01      3.78         0.01
  WS02004405WS02004406        0.01      0.01      0.01      0.95         0.01
  WS02006109WS02006110        0.91      0.91      2.28      1.13         0.01
  WS02006110WS02006113        0.01      0.01      2.27      0.01         0.01
  WS02006111WS02006112        0.01      0.01      2.43      0.01         0.01
  WS02006112WS02006115        0.01      0.01      1.09      0.01         0.01
  WS02006228WS02006109        2.26      2.28      2.26      2.71         2.26
  WS02006229WS02006228        2.25      2.26      2.25      2.40         2.25
  WS02006230WS02006229        2.31      2.38      2.31      4.57         2.31
  WS02006231WS02006230        0.93      0.93      1.27      4.08         0.01
  WS02006232WS02006231        1.17      1.17      2.29      1.27         0.01
  WS02006234WS02006232        2.18      2.18      2.29      1.25         1.23
  WS02006235WS02006234        1.62      1.63      2.19      3.92         0.03
  WS02006238WS02006235        2.22      2.22      2.29      0.01         0.01
  WS02006239WS02006238        2.26      2.28      2.26      2.33         1.98
  WS02006240WS02006239        2.22      2.26      2.22      2.33         1.85
  WS02006242WS02006240        2.26      2.26      2.29      2.47         0.01
  WS02006243WS02006242        2.26      2.26      2.28      0.01         0.08
  WS02006245WS02006243        2.25      2.26      2.25      1.36         1.30
  WS02006247WS02006245        2.25      2.26      2.25      3.67         2.23
  WS02006248WS02006247        2.25      2.25      2.26      0.01         0.08
  WS02006249WS02006248        2.24      2.24      2.25      3.63         0.01
  WS02006251WS02006249        2.24      2.24      2.25      2.43         2.13
  WS02006252WS02006251        2.50      2.50      2.51      2.51         0.01
  WS02006256WS02006235        3.90      3.96      6.68      1.58         0.01
  YS02001580YS02001583        0.86      0.86      0.93      0.01         0.01
  YS02001583YS02001586        0.87      0.87      1.07      0.01         0.01
  YS02001586YS02001590        1.07      1.07      1.16      0.01         0.01
  YS02001590YS02001593        1.16      1.16      1.18      1.22         0.01
  YS02001593YS02001596        1.17      1.17      1.28      0.01         0.01
  YS02001596YS02001600        1.34      1.34      1.46      0.01         0.01
  YS02001600YS02001601        1.54      1.54      1.73      0.01         0.01
  YS02001601YS02001602        1.66      1.66      1.76      1.44         0.01
  YS02001602YS02001605        1.63      1.63      1.66      2.39         0.01
  YS02001605YS02001607        1.60      1.63      1.60      1.70         1.60
  YS02001607YS02001610        1.17      1.17      1.21      0.01         0.01
  YS02001610YS02001613        1.17      1.17      1.21      0.01         0.01
  YS02001613YS02001616        1.12      1.12      1.17      0.01         0.01
  YS02001616YS02001619        1.11      1.11      1.12      0.01         0.07
  YS02001619YS02001622        1.11      1.11      1.11      1.09         0.97
  YS02001622YS02001625        1.11      1.11      1.31      0.01         0.01
  YS02001625YS02001629        1.04      1.04      1.31      0.01         0.01
  YS02001629YS02163301        1.32      1.32      1.34      0.02         0.10
  YS02001633YS02163601        1.36      1.36      1.40      0.21         0.24
  YS02001641YS02001644        1.30      1.32      1.30      1.77         1.27
  YS02001644YS02001647        1.08      1.08      1.30      0.04         0.01
  YS02001647YS02001649        1.08      1.08      1.25      0.01         0.01
  YS02001649YS02001757        1.24      1.25      1.34      0.04         0.02
  YS02001652YS02001649        1.04      1.04      1.25      0.01         0.01
  YS02001655YS02001652        0.79      0.79      1.01      0.01         0.01
  YS02001658YS02001655        0.39      0.39      0.79      0.01         0.01
  YS02001661YS02001658        0.12      0.12      0.39      0.01         0.01
  YS02001664YS02001661        0.01      0.01      0.16      0.01         0.01
  YS02001745YS02001748        0.01      0.01      0.29      0.01         0.01
  YS02001748YS02001751        0.34      0.34      0.58      0.01         0.01
  YS02001751YS02001754        0.58      0.58      0.91      0.01         0.01
  YS02001754YS02001757        0.97      0.97      1.34      0.01         0.01
  YS02001757CaochengTiaoxuchi        1.30      1.34      2.28      0.45         0.40
  YS02001759YS02001757        1.23      1.23      1.34      0.07         0.07
  YS02001762YS02001759        1.19      1.19      1.23      0.01         0.02
  YS02001765YS02001762        1.14      1.14      1.19      0.01         0.01
  YS02001767YS02001765        1.10      1.10      1.14      0.01         0.02
  YS02001770YS02001767        1.09      1.09      1.10      0.72         0.69
  YS02001774YS02001770        1.05      1.05      1.17      0.01         0.01
  YS02001779YS02001774        0.88      0.88      1.17      0.01         0.01
  YS02001783YS02001784        0.70      0.73      0.70      0.88         0.70
  YS02001784YS02001785        0.58      0.70      0.58      1.20         0.58
  YS02001786YS02001788        0.01      0.58      0.01      1.01         0.01
  YS02001790YS02001791        0.01      0.01      0.01      0.68         0.01
  YS02001793JiankangQianchi        0.01      0.01      7.45      0.01         0.01
  YS02001882YS02001884        0.66      0.66      0.67      0.01         0.01
  YS02001884YS02001887        0.70      0.70      0.71      0.01         0.01
  YS02001887YS02001890        0.73      0.73      0.74      0.20         0.01
  YS02001890YS02001895        0.65      0.65      0.76      0.01         0.01
  YS02001895YS02001898        0.64      0.64      0.65      0.01         0.01
  YS02001898YS02001901        0.65      0.65      0.70      0.01         0.01
  YS02001901YS02001904        0.69      0.69      0.70      0.01         0.01
  YS02001904YS02001907        0.69      0.69      0.99      0.01         0.01
  YS02001907YS02006553        1.22      1.22      1.31      0.01         0.01
  YS02001910YS02001907        0.76      0.76      0.95      0.01         0.01
  YS02001915YS02001910        0.66      0.66      0.76      0.01         0.01
  YS02001918YS02001915        0.57      0.57      0.66      0.01         0.01
  YS02001920YS02001918        0.57      0.57      0.58      0.01         0.01
  YS02001923YS02001920        0.52      0.52      0.58      0.01         0.01
  YS02001926YS02001923        0.20      0.20      0.24      0.01         0.01
  YS02001929YS02001926        0.03      0.03      0.24      0.01         0.01
  YS02006553YS02006556        0.85      0.85      0.99      0.01         0.01
  YS02006556YS02006558        0.91      0.91      1.02      0.01         0.01
  YS02006558YS02006561        0.60      0.84      0.60      1.14         0.60
  YS02006561YS02001783        0.53      0.53      0.73      0.01         0.01
  YS02163301YS02001633        1.34      1.34      1.37      0.01         0.01
  YS02163601YS02164001        1.32      1.32      1.40      0.04         0.01
  YS02164001YS02001641        1.32      1.32      1.32      0.83         0.77
  
  
  ***************
  Pumping Summary
  ***************
  
  ---------------------------------------------------------------------------------------------------------
                                                  Min       Avg       Max     Total     Power    % Time Off
                        Percent   Number of      Flow      Flow      Flow    Volume     Usage    Pump Curve
  Pump                 Utilized   Start-Ups       LPS       LPS       LPS  10^6 ltr     Kw-hr    Low   High
  ---------------------------------------------------------------------------------------------------------
  CC-R1                   24.13           6      0.00    683.00    683.00     4.747     90.80    0.0    8.9
  CC-R2                   21.39           5      0.00    683.00    683.00     4.207     80.42    0.0   16.1
  CC-S1                   45.50           7      0.00    200.00    200.00     2.621     14.47    0.0    0.0
  CC-S2                   32.39           8      0.00    200.00    200.00     1.865     10.01    0.0    0.0
  JK-R1                   11.46          19      0.00   1000.00   1000.00     3.300     39.41    0.0    0.0
  JK-R2                    0.22           3      0.00   1000.00   1000.00     0.062      0.44    0.0    0.0
  JK-S                    19.58          29      0.00    300.00    300.00     1.691     22.36    0.0    0.0
  

  Analysis begun on:  Mon Feb 24 09:51:10 2025
  Analysis ended on:  Mon Feb 24 09:51:12 2025
  Total elapsed time: 00:00:02