
  EPA STORM WATER MANAGEMENT MODEL - VERSION 5.2 (Build 5.2.4)
  PYSWMM TOOLKIT API - VERSION v1.0 (2023-11-27)
  ------------------------------------------------------------

  WARNING 04: minimum elevation drop used for Conduit WS02004404WS02004405
  WARNING 03: negative offset ignored for Link YS02001904YS02001907
  
  ****************
  Analysis Options
  ****************
  Flow Units ............... LPS
  Process Models:
    Rainfall/Runoff ........ YES
    RDII ................... NO
    Snowmelt ............... NO
    Groundwater ............ NO
    Flow Routing ........... YES
    Ponding Allowed ........ NO
    Water Quality .......... NO
  Infiltration Method ...... HORTON
  Flow Routing Method ...... DYNWAVE
  Surcharge Method ......... EXTRAN
  Starting Date ............ 08/28/2015 08:00:00
  Ending Date .............. 08/28/2015 16:00:00
  Antecedent Dry Days ...... 8.0
  Report Time Step ......... 00:01:00
  Wet Time Step ............ 00:01:00
  Dry Time Step ............ 00:01:00
  Routing Time Step ........ 30.00 sec
  Variable Time Step ....... YES
  Maximum Trials ........... 8
  Number of Threads ........ 4
  Head Tolerance ........... 0.001500 m
  
  
  **************************        Volume         Depth
  Runoff Quantity Continuity     hectare-m            mm
  **************************     ---------       -------
  Total Precipitation ......         2.707        81.619
  Evaporation Loss .........         0.000         0.000
  Infiltration Loss ........         0.105         3.172
  Surface Runoff ...........         2.570        77.468
  Final Storage ............         0.033         0.997
  Continuity Error (%) .....        -0.021
  
  
  **************************        Volume        Volume
  Flow Routing Continuity        hectare-m      10^6 ltr
  **************************     ---------     ---------
  Dry Weather Inflow .......         0.025         0.251
  Wet Weather Inflow .......         2.569        25.695
  Groundwater Inflow .......         0.000         0.000
  RDII Inflow ..............         0.000         0.000
  External Inflow ..........         0.083         0.834
  External Outflow .........         1.742        17.420
  Flooding Loss ............         1.003        10.032
  Evaporation Loss .........         0.000         0.000
  Exfiltration Loss ........         0.000         0.000
  Initial Stored Volume ....         0.243         2.431
  Final Stored Volume ......         0.182         1.821
  Continuity Error (%) .....        -0.213
  
  
  *************************
  Highest Continuity Errors
  *************************
  Node YS02001884 (5.33%)
  Node YS02001583 (-2.82%)
  Node WS02006256 (-1.42%)
  
  
  ***************************
  Time-Step Critical Elements
  ***************************
  Link WS02006252WS02006251 (46.31%)
  Link WS02006238WS02006235 (12.05%)
  Link WS02004404WS02004405 (10.65%)
  Link YS02001791YS02001793 (8.03%)
  Link WS02006235WS02006234 (7.09%)
  
  
  ********************************
  Highest Flow Instability Indexes
  ********************************
  Link WS02006113WS02006111 (45)
  Link WS02006111WS02006112 (25)
  Link WS02004404WS02004405 (20)
  Link WS02004403WS02004404 (19)
  Link WS02006252WS02006251 (17)
  
  
  *********************************
  Most Frequent Nonconverging Nodes
  *********************************
  Node CC-1 (11.64%)
  Node CC-2 (11.64%)
  Node JK-1 (11.64%)
  Node JK-2 (11.64%)
  Node WSC (11.64%)
  
  
  *************************
  Routing Time Step Summary
  *************************
  Minimum Time Step           :     0.01 sec
  Average Time Step           :     1.89 sec
  Maximum Time Step           :     7.04 sec
  % of Time in Steady State   :     0.00
  Average Iterations per Step :     3.06
  % of Steps Not Converging   :    11.64
  Time Step Frequencies       :
     30.000 - 13.228 sec      :     0.00 %
     13.228 -  5.833 sec      :     5.87 %
      5.833 -  2.572 sec      :    21.12 %
      2.572 -  1.134 sec      :    20.45 %
      1.134 -  0.500 sec      :    52.56 %
  
  
  ***************************
  Subcatchment Runoff Summary
  ***************************
  
  ------------------------------------------------------------------------------------------------------------------------------
                            Total      Total      Total      Total     Imperv       Perv      Total       Total     Peak  Runoff
                           Precip      Runon       Evap      Infil     Runoff     Runoff     Runoff      Runoff   Runoff   Coeff
  Subcatchment                 mm         mm         mm         mm         mm         mm         mm    10^6 ltr      LPS
  ------------------------------------------------------------------------------------------------------------------------------
  sub60                     81.62       0.00       0.00       1.87      70.63       7.92      78.55        1.03   722.22   0.962
  sub61                     81.62       0.00       0.00       2.73      66.62      11.15      77.77        1.43  1005.30   0.953
  sub62                     81.62       0.00       0.00       1.25      73.81       5.28      79.09        2.17  1422.87   0.969
  sub63                     81.62       0.00       0.00       5.07      56.98      18.60      75.58        1.72  1159.39   0.926
  sub64                     81.62       0.00       0.00       2.56      68.17       9.69      77.86        1.87  1176.32   0.954
  sub65                     81.62       0.00       0.00       2.21      69.76       8.40      78.15        2.15  1316.04   0.958
  sub66                     81.62       0.00       0.00       6.34      56.87      17.33      74.20        3.46  1807.35   0.909
  sub67                     81.62       0.00       0.00       1.20      73.85       5.34      79.19        1.47  1069.49   0.970
  sub68                     81.62       0.00       0.00       2.26      69.01       9.17      78.18        2.15  1458.83   0.958
  sub69                     81.62       0.00       0.00       2.06      69.27      10.19      79.45        2.94  1748.21   0.973
  sub70                     81.62       0.00       0.00       6.92      53.70      20.83      74.53        2.15  1017.95   0.913
  sub71                     81.62       0.00       0.00       1.29      73.76       5.24      79.01        2.07  1266.79   0.968
  sub72                     81.62       0.00       0.00       1.15      74.50       4.57      79.07        1.09   617.94   0.969
  
  
  ******************
  Node Depth Summary
  ******************
  
  ---------------------------------------------------------------------------------
                                 Average  Maximum  Maximum  Time of Max    Reported
                                   Depth    Depth      HGL   Occurrence   Max Depth
  Node                 Type       Meters   Meters   Meters  days hr:min      Meters
  ---------------------------------------------------------------------------------
  WS02003060           JUNCTION     0.23     0.38     5.32     0  02:41        0.38
  WS02003066           JUNCTION     0.19     0.30     5.85     0  02:32        0.30
  WS02003067           JUNCTION     0.50     0.70     6.02     0  02:40        0.70
  WS02003069           JUNCTION     0.26     0.43     5.01     0  02:34        0.43
  WS02003072           JUNCTION     0.32     0.50     4.87     0  02:34        0.50
  WS02003073           JUNCTION     0.18     0.30     4.36     0  02:35        0.30
  WS02004401           JUNCTION     0.59     0.87     6.87     0  02:35        0.87
  WS02004402           JUNCTION     0.63     0.90     6.86     0  02:36        0.90
  WS02004403           JUNCTION     0.65     0.92     6.85     0  02:33        0.92
  WS02004404           JUNCTION     0.73     1.03     6.88     0  02:35        1.01
  WS02004405           JUNCTION     0.71     0.97     6.82     0  02:30        0.96
  WS02004406           JUNCTION     0.73     0.96     6.79     0  02:31        0.96
  WS02004407           JUNCTION     0.18     0.30     6.61     0  02:31        0.30
  WS02004409           JUNCTION     0.39     0.67     6.44     0  02:32        0.67
  WS02004410           JUNCTION     0.41     0.68     6.40     0  02:32        0.68
  WS02004411           JUNCTION     0.44     0.69     6.37     0  02:32        0.69
  WS02004412           JUNCTION     0.46     0.70     6.34     0  02:32        0.70
  WS02004413           JUNCTION     0.62     0.86     6.33     0  02:33        0.86
  WS02006109           JUNCTION     0.65     1.19     7.81     0  03:04        1.08
  WS02006110           JUNCTION     0.65     1.40     7.99     0  03:04        1.04
  WS02006111           JUNCTION     0.18     0.29     6.99     0  03:05        0.29
  WS02006112           JUNCTION     0.75     1.09     6.97     0  02:58        1.08
  WS02006113           JUNCTION     0.27     0.46     7.35     0  02:47        0.46
  WS02006115           JUNCTION     0.48     0.77     6.91     0  02:35        0.77
  WS02006116           JUNCTION     0.56     0.85     6.89     0  02:35        0.85
  WS02006228           JUNCTION     0.64     1.27     7.92     0  02:46        1.10
  WS02006229           JUNCTION     0.61     1.33     8.02     0  02:46        1.13
  WS02006230           JUNCTION     0.61     1.57     8.32     0  02:46        1.25
  WS02006231           JUNCTION     0.42     1.54     8.66     0  02:35        1.22
  WS02006232           JUNCTION     0.56     1.45     8.49     0  02:46        1.45
  WS02006234           JUNCTION     0.48     1.47     8.62     0  02:03        1.44
  WS02006235           JUNCTION     0.52     1.65     8.82     0  02:03        1.55
  WS02006238           JUNCTION     0.55     1.70     8.84     0  02:03        1.60
  WS02006239           JUNCTION     0.52     1.99     9.20     0  02:06        1.99
  WS02006240           JUNCTION     0.48     2.10     9.39     0  02:06        2.10
  WS02006242           JUNCTION     0.55     1.55     8.82     0  02:03        1.55
  WS02006243           JUNCTION     0.46     1.48     8.90     0  02:06        1.48
  WS02006245           JUNCTION     0.47     1.56     9.04     0  02:06        1.56
  WS02006247           JUNCTION     0.49     1.47     8.97     0  02:06        1.47
  WS02006248           JUNCTION     0.45     1.10     8.69     0  02:03        1.10
  WS02006249           JUNCTION     0.49     1.09     8.69     0  02:00        1.09
  WS02006251           JUNCTION     0.49     1.30     8.97     0  04:10        1.18
  WS02006252           JUNCTION     0.36     1.50     9.74     0  00:00        0.82
  WS02006256           JUNCTION     0.97     2.35     9.28     0  00:00        2.35
  WSF200               JUNCTION     0.17     0.29     5.52     0  02:40        0.29
  YS02001580           JUNCTION     0.09     0.96     9.50     0  02:06        0.77
  YS02001583           JUNCTION     0.13     1.01     9.50     0  02:06        0.89
  YS02001586           JUNCTION     0.20     1.13     9.30     0  02:06        1.13
  YS02001590           JUNCTION     0.30     1.40     9.26     0  02:06        1.40
  YS02001593           JUNCTION     0.23     1.46     9.32     0  02:06        1.46
  YS02001596           JUNCTION     0.32     1.80     9.22     0  02:06        1.80
  YS02001600           JUNCTION     0.39     1.87     9.00     0  02:06        1.87
  YS02001601           JUNCTION     0.58     2.06     8.90     0  02:05        2.06
  YS02001602           JUNCTION     0.49     1.87     8.77     0  02:09        1.87
  YS02001605           JUNCTION     0.46     1.78     8.68     0  02:33        1.78
  YS02001607           JUNCTION     0.45     1.66     8.50     0  02:22        1.66
  YS02001610           JUNCTION     0.50     1.68     8.48     0  02:10        1.68
  YS02001613           JUNCTION     0.45     1.67     8.51     0  02:26        1.66
  YS02001616           JUNCTION     0.38     1.61     8.52     0  02:22        1.61
  YS02001619           JUNCTION     0.36     1.61     8.54     0  02:22        1.61
  YS02001622           JUNCTION     0.35     1.58     8.49     0  02:25        1.58
  YS02001625           JUNCTION     0.62     1.78     8.38     0  02:10        1.78
  YS02001629           JUNCTION     0.47     1.85     8.40     0  02:13        1.85
  YS02001633           JUNCTION     0.55     2.08     8.53     0  02:22        2.08
  YS02001641           JUNCTION     0.54     1.96     8.40     0  02:28        1.96
  YS02001644           JUNCTION     0.54     1.92     8.35     0  02:15        1.92
  YS02001647           JUNCTION     0.33     1.77     8.38     0  02:20        1.77
  YS02001649           JUNCTION     0.37     2.02     8.41     0  02:23        2.01
  YS02001652           JUNCTION     0.27     1.87     8.47     0  02:24        1.87
  YS02001655           JUNCTION     0.21     1.69     8.54     0  02:24        1.69
  YS02001658           JUNCTION     0.15     1.47     8.61     0  02:24        1.46
  YS02001661           JUNCTION     0.18     1.28     8.68     0  02:24        1.27
  YS02001664           JUNCTION     0.06     0.78     8.71     0  02:24        0.76
  YS02001745           JUNCTION     0.09     0.96     8.48     0  02:24        0.96
  YS02001748           JUNCTION     0.15     1.38     8.46     0  02:23        1.38
  YS02001751           JUNCTION     0.18     1.55     8.43     0  02:24        1.54
  YS02001754           JUNCTION     0.24     1.79     8.40     0  02:24        1.78
  YS02001757           JUNCTION     0.41     2.17     8.44     0  02:22        2.17
  YS02001759           JUNCTION     0.34     2.21     8.57     0  02:22        2.21
  YS02001762           JUNCTION     0.33     2.15     8.55     0  02:22        2.15
  YS02001765           JUNCTION     0.31     2.10     8.55     0  02:22        2.10
  YS02001767           JUNCTION     0.31     2.03     8.52     0  02:22        2.03
  YS02001770           JUNCTION     0.32     1.95     8.44     0  02:22        1.95
  YS02001774           JUNCTION     0.39     2.01     8.43     0  02:22        2.00
  YS02001779           JUNCTION     0.22     1.68     8.37     0  02:16        1.68
  YS02001783           JUNCTION     0.24     1.34     7.48     0  02:22        1.33
  YS02001784           JUNCTION     0.26     1.20     7.27     0  02:22        1.12
  YS02001786           JUNCTION     0.22     0.92     6.95     0  02:22        0.88
  YS02001788           JUNCTION     0.16     0.62     6.60     0  02:24        0.62
  YS02001790           JUNCTION     0.18     0.73     6.37     0  02:24        0.72
  YS02001791           JUNCTION     0.12     0.44     5.91     0  02:24        0.43
  YS02001793           JUNCTION     0.06     0.31     5.14     0  02:21        0.29
  YS02001882           JUNCTION     0.31     1.67     8.39     0  02:25        1.67
  YS02001884           JUNCTION     0.41     1.77     8.39     0  02:24        1.77
  YS02001887           JUNCTION     0.48     2.00     8.54     0  02:22        2.00
  YS02001890           JUNCTION     0.51     1.81     8.32     0  02:13        1.81
  YS02001895           JUNCTION     0.28     1.70     8.45     0  02:22        1.70
  YS02001898           JUNCTION     0.29     1.59     8.33     0  02:22        1.59
  YS02001901           JUNCTION     0.41     1.68     8.29     0  02:33        1.68
  YS02001904           JUNCTION     0.39     1.64     8.27     0  02:13        1.63
  YS02001907           JUNCTION     0.71     1.96     8.25     0  02:13        1.96
  YS02001910           JUNCTION     0.51     2.06     8.56     0  02:22        2.06
  YS02001915           JUNCTION     0.32     2.00     8.72     0  02:22        2.00
  YS02001918           JUNCTION     0.17     1.67     8.74     0  02:25        1.67
  YS02001920           JUNCTION     0.25     1.76     8.77     0  02:25        1.75
  YS02001923           JUNCTION     0.13     1.56     8.82     0  02:14        1.53
  YS02001926           JUNCTION     0.17     1.42     8.87     0  02:14        1.37
  YS02001929           JUNCTION     0.10     1.37     9.06     0  02:14        1.14
  YS02006553           JUNCTION     0.71     2.19     8.47     0  02:22        2.19
  YS02006556           JUNCTION     0.69     2.39     8.70     0  02:22        2.39
  YS02006558           JUNCTION     0.73     2.50     8.77     0  02:22        2.50
  YS02006561           JUNCTION     0.15     1.05     7.71     0  02:22        0.91
  YS02163301           JUNCTION     0.50     2.03     8.55     0  02:22        2.03
  YS02163601           JUNCTION     0.60     2.07     8.47     0  02:22        2.07
  YS02164001           JUNCTION     0.53     1.98     8.44     0  02:22        1.98
  CC-1                 OUTFALL      0.00     0.00     0.00     0  00:00        0.00
  CC-2                 OUTFALL      0.00     0.00     0.00     0  00:00        0.00
  JK-1                 OUTFALL      0.00     0.00     0.00     0  00:00        0.00
  JK-2                 OUTFALL      0.00     0.00     0.00     0  00:00        0.00
  WSC                  OUTFALL      0.18     0.30     0.97     0  02:35        0.30
  CC-storage           STORAGE      0.97     1.91     7.41     0  02:46        1.91
  JK-storage           STORAGE      2.68     4.24     5.04     0  02:20        4.19
  
  
  *******************
  Node Inflow Summary
  *******************
  
  -------------------------------------------------------------------------------------------------
                                  Maximum  Maximum                  Lateral       Total        Flow
                                  Lateral    Total  Time of Max      Inflow      Inflow     Balance
                                   Inflow   Inflow   Occurrence      Volume      Volume       Error
  Node                 Type           LPS      LPS  days hr:min    10^6 ltr    10^6 ltr     Percent
  -------------------------------------------------------------------------------------------------
  WS02003060           JUNCTION     16.53   553.14     0  02:40       0.476         5.9       0.041
  WS02003066           JUNCTION      0.00   535.13     0  02:33           0        5.43       0.026
  WS02003067           JUNCTION      0.00   535.09     0  02:33           0        5.43       0.079
  WS02003069           JUNCTION      0.32   552.36     0  02:33     0.00922        5.91       0.070
  WS02003072           JUNCTION      0.00   551.78     0  02:34           0        5.91       0.123
  WS02003073           JUNCTION      1.82   553.08     0  02:35      0.0524        5.95       0.102
  WS02004401           JUNCTION      0.00   542.07     0  02:37           0        5.53       0.187
  WS02004402           JUNCTION      0.00   541.45     0  02:37           0        5.52       0.190
  WS02004403           JUNCTION      0.00   540.47     0  02:38           0        5.51       0.184
  WS02004404           JUNCTION      0.16   555.05     0  02:32     0.00467        5.51       0.160
  WS02004405           JUNCTION      0.04   605.31     0  02:33      0.0011         5.5       0.155
  WS02004406           JUNCTION      0.00   542.22     0  02:31           0        5.49       0.381
  WS02004407           JUNCTION      0.00   537.93     0  02:31           0        5.47       0.023
  WS02004409           JUNCTION      0.00   537.55     0  02:31           0        5.47       0.053
  WS02004410           JUNCTION      0.00   536.35     0  02:32           0        5.46       0.084
  WS02004411           JUNCTION      0.00   536.28     0  02:32           0        5.46       0.106
  WS02004412           JUNCTION      0.00   535.79     0  02:32           0        5.45       0.141
  WS02004413           JUNCTION      0.00   535.43     0  02:40           0        5.45       0.249
  WS02006109           JUNCTION      1.23   573.42     0  02:46      0.0354        5.58       0.148
  WS02006110           JUNCTION      0.00   576.16     0  02:46           0        5.57       0.122
  WS02006111           JUNCTION      0.00   561.28     0  02:22           0        5.56       0.017
  WS02006112           JUNCTION      0.00   543.62     0  02:09           0        5.56       0.308
  WS02006113           JUNCTION      0.00   573.68     0  02:46           0        5.56       0.031
  WS02006115           JUNCTION      0.00   553.67     0  02:46           0        5.54       0.121
  WS02006116           JUNCTION      0.00   542.31     0  02:33           0        5.54       0.108
  WS02006228           JUNCTION      0.00   568.36     0  02:46           0        5.55       0.068
  WS02006229           JUNCTION      0.00   567.70     0  02:46           0        5.55       0.101
  WS02006230           JUNCTION     10.28   603.18     0  02:06       0.296        5.56       0.079
  WS02006231           JUNCTION      0.00   580.04     0  02:12           0        5.26      -0.074
  WS02006232           JUNCTION      0.00   578.96     0  02:12           0        5.27       0.198
  WS02006234           JUNCTION      0.00   574.16     0  02:06           0        5.25      -0.274
  WS02006235           JUNCTION      0.00   563.60     0  02:12           0        5.35       0.228
  WS02006238           JUNCTION      0.00   430.58     0  04:05           0         4.4      -0.201
  WS02006239           JUNCTION      0.00   431.29     0  02:00           0        4.34      -0.125
  WS02006240           JUNCTION      0.00   428.37     0  04:05           0         4.3      -0.063
  WS02006242           JUNCTION      0.00   427.79     0  04:05           0        4.28      -0.041
  WS02006243           JUNCTION      0.00   426.71     0  04:05           0        4.27       0.038
  WS02006245           JUNCTION      0.00   425.33     0  04:05           0        4.28       0.342
  WS02006247           JUNCTION      0.00   425.41     0  04:05           0        4.28       0.012
  WS02006248           JUNCTION      0.00   425.34     0  02:01           0        4.28       0.097
  WS02006249           JUNCTION      0.00   464.79     0  05:45           0        4.53       0.327
  WS02006251           JUNCTION      0.08   404.50     0  02:06     0.00222        4.53      -0.019
  WS02006252           JUNCTION      0.00   400.00     0  00:00           0        4.52      -0.081
  WS02006256           JUNCTION      0.00   300.00     0  00:00           0        1.43      -1.396
  WSF200               JUNCTION      0.00   535.13     0  02:33           0        5.43       0.010
  YS02001580           JUNCTION      0.00    66.89     0  02:06           0     0.00409       0.725
  YS02001583           JUNCTION      0.00   102.83     0  02:05           0      0.0158      -2.744
  YS02001586           JUNCTION   1017.95  1017.95     0  02:26        2.15        2.17       0.042
  YS02001590           JUNCTION      0.00   319.28     0  02:22           0        1.53      -0.026
  YS02001593           JUNCTION      0.00   320.13     0  02:22           0        1.53       0.002
  YS02001596           JUNCTION      0.00   318.10     0  02:46           0        1.53      -0.017
  YS02001600           JUNCTION      0.00   318.30     0  02:22           0        1.53       0.022
  YS02001601           JUNCTION   1748.21  2065.85     0  02:25        2.94        4.48       0.022
  YS02001602           JUNCTION      0.00   492.24     0  02:05           0        2.57       0.020
  YS02001605           JUNCTION      0.00   491.95     0  02:05           0        2.41       0.025
  YS02001607           JUNCTION      0.00   491.59     0  02:05           0        2.41       0.082
  YS02001610           JUNCTION      0.00   950.81     0  02:28           0        2.85       0.091
  YS02001613           JUNCTION      0.00   614.82     0  02:28           0        2.25       0.076
  YS02001616           JUNCTION      0.00   614.59     0  02:28           0        2.25       0.020
  YS02001619           JUNCTION   1807.35  1807.35     0  02:26        3.46        5.26       0.004
  YS02001622           JUNCTION      0.00  1053.88     0  02:27           0        4.79       0.001
  YS02001625           JUNCTION      0.00  1504.41     0  02:28           0        5.17       0.202
  YS02001629           JUNCTION      0.00   885.91     0  02:08           0        3.73       0.005
  YS02001633           JUNCTION   1316.24  1316.24     0  02:25        2.16        5.46       0.062
  YS02001641           JUNCTION      0.00  1214.75     0  02:08           0        5.03       0.055
  YS02001644           JUNCTION   1176.36  2116.90     0  02:25        1.87        6.94       0.050
  YS02001647           JUNCTION      0.00  1524.13     0  02:09           0        5.92       0.007
  YS02001649           JUNCTION      0.00  1742.35     0  02:11           0        7.59       0.002
  YS02001652           JUNCTION      0.00  1167.53     0  02:25           0        1.72      -0.053
  YS02001655           JUNCTION      0.15  1167.51     0  02:25     0.00443        1.72       0.018
  YS02001658           JUNCTION      0.00  1167.23     0  02:25           0        1.72      -0.015
  YS02001661           JUNCTION      0.00  1167.39     0  02:25           0        1.72       0.010
  YS02001664           JUNCTION   1159.39  1159.39     0  02:25        1.72        1.72      -0.008
  YS02001745           JUNCTION    722.23   722.23     0  02:25        1.03        1.03       0.109
  YS02001748           JUNCTION      0.04   726.39     0  02:25      0.0013        1.03      -0.165
  YS02001751           JUNCTION      0.01   727.07     0  02:25    0.000317        1.04       0.046
  YS02001754           JUNCTION      0.26   727.25     0  02:25     0.00749        1.05      -0.106
  YS02001757           JUNCTION      0.00  2931.82     0  02:23           0        11.7       0.009
  YS02001759           JUNCTION   1005.34  1297.68     0  02:25        1.43        3.13      -0.008
  YS02001762           JUNCTION      0.00   671.68     0  02:18           0         1.7       0.009
  YS02001765           JUNCTION      0.00   672.23     0  02:18           0         1.7       0.017
  YS02001767           JUNCTION      0.54   672.44     0  02:18      0.0154         1.7       0.007
  YS02001770           JUNCTION   1423.02  1423.02     0  02:25        2.17        2.22      -0.001
  YS02001774           JUNCTION      0.00   851.30     0  02:26           0       0.513       0.244
  YS02001779           JUNCTION      0.01   850.82     0  02:26    0.000144       0.468      -0.000
  YS02001783           JUNCTION      0.00  1175.15     0  02:22           0         4.7       0.004
  YS02001784           JUNCTION      1.06  1176.41     0  02:22      0.0305        4.73       0.012
  YS02001786           JUNCTION      0.06  1178.06     0  02:22     0.00162        4.73       0.014
  YS02001788           JUNCTION      0.07  1182.20     0  02:22     0.00204        4.73       0.007
  YS02001790           JUNCTION      0.15  1182.44     0  02:24     0.00446        4.73       0.017
  YS02001791           JUNCTION      0.00  1294.12     0  02:20           0        4.73      -0.024
  YS02001793           JUNCTION      0.00  1267.03     0  02:24           0        4.73       0.003
  YS02001882           JUNCTION      0.00    29.25     0  02:10           0      0.0133       5.326
  YS02001884           JUNCTION      0.00    35.65     0  02:09           0      0.0492       5.635
  YS02001887           JUNCTION   1069.94  1070.30     0  02:25        1.49        1.52       0.289
  YS02001890           JUNCTION      0.00  1070.04     0  02:25           0        1.48       0.352
  YS02001895           JUNCTION      0.00   520.57     0  02:22           0        1.28       0.137
  YS02001898           JUNCTION      0.00   519.69     0  02:22           0        1.28       0.014
  YS02001901           JUNCTION      0.00   517.54     0  02:22           0        1.28       0.261
  YS02001904           JUNCTION      0.00   517.87     0  02:22           0        1.28       0.224
  YS02001907           JUNCTION      0.00  2704.06     0  02:25           0        4.57       0.401
  YS02001910           JUNCTION      0.00  1893.65     0  02:25           0        3.24       0.219
  YS02001915           JUNCTION   1266.81  1893.01     0  02:25        2.07        3.26       0.050
  YS02001918           JUNCTION      0.00   628.02     0  02:25           0         1.2       0.015
  YS02001920           JUNCTION      2.87   627.76     0  02:25      0.0827        1.19       0.082
  YS02001923           JUNCTION      0.04   623.87     0  02:25     0.00109         1.1      -0.015
  YS02001926           JUNCTION      0.05   623.29     0  02:25      0.0015        1.09       0.005
  YS02001929           JUNCTION    617.94   617.94     0  02:26        1.09        1.09      -0.020
  YS02006553           JUNCTION      0.00   804.89     0  02:40           0        2.67       0.440
  YS02006556           JUNCTION      0.00   804.64     0  02:40           0        2.68       0.297
  YS02006558           JUNCTION   1459.71  1459.71     0  02:25        2.18        4.78       0.074
  YS02006561           JUNCTION      0.00  1171.46     0  02:22           0         4.7      -0.001
  YS02163301           JUNCTION      0.00   884.75     0  02:08           0        3.74       0.041
  YS02163601           JUNCTION      0.11  1215.13     0  02:08     0.00317        5.03       0.099
  YS02164001           JUNCTION      0.00  1215.15     0  02:08           0        5.02       0.049
  CC-1                 OUTFALL       0.00   683.00     0  00:00           0         4.3       0.000
  CC-2                 OUTFALL       0.00   683.00     0  00:00           0        3.75       0.000
  JK-1                 OUTFALL       0.00  1000.00     0  00:00           0        3.15       0.000
  JK-2                 OUTFALL       0.00  1000.00     0  00:00           0       0.276       0.000
  WSC                  OUTFALL       0.00   552.62     0  02:35           0        5.94       0.000
  CC-storage           STORAGE       0.00  2931.46     0  02:23           0        13.9      -0.183
  JK-storage           STORAGE       0.00  1260.36     0  02:40           0        4.88      -0.337
  
  
  **********************
  Node Surcharge Summary
  **********************
  
  Surcharging occurs when water rises above the top of the highest conduit.
  ---------------------------------------------------------------------
                                               Max. Height   Min. Depth
                                   Hours       Above Crown    Below Rim
  Node                 Type      Surcharged         Meters       Meters
  ---------------------------------------------------------------------
  WS02004404           JUNCTION        0.01          0.031        2.749
  WS02006109           JUNCTION        2.26          0.374        1.446
  WS02006110           JUNCTION        0.72          0.495        1.355
  WS02006112           JUNCTION        1.04          0.089        1.591
  WS02006228           JUNCTION        2.25          0.442        1.758
  WS02006229           JUNCTION        2.26          0.527        1.923
  WS02006230           JUNCTION        0.73          0.494        1.076
  WS02006231           JUNCTION        0.94          0.828        0.702
  WS02006232           JUNCTION        2.30          0.754        0.726
  WS02006234           JUNCTION        1.32          0.746        0.494
  WS02006235           JUNCTION        2.20          0.942        0.348
  WS02006238           JUNCTION        2.26          0.980        0.450
  WS02006239           JUNCTION        2.23          1.255        0.035
  WS02006240           JUNCTION        2.26          1.390        0.000
  WS02006242           JUNCTION        2.29          0.820        0.000
  WS02006243           JUNCTION        2.27          0.770        0.000
  WS02006245           JUNCTION        2.26          0.850        0.000
  WS02006247           JUNCTION        2.26          0.760        0.000
  WS02006248           JUNCTION        2.26          0.380        0.000
  WS02006249           JUNCTION        2.26          0.390        0.000
  WS02006251           JUNCTION        1.03          0.269        0.911
  WS02006252           JUNCTION        2.48          1.100        0.000
  WS02006256           JUNCTION        6.70          2.050        0.000
  YS02001580           JUNCTION        0.78          0.359        0.091
  YS02001583           JUNCTION        0.78          0.366        0.134
  YS02001586           JUNCTION        0.93          0.510        0.000
  YS02001590           JUNCTION        1.01          0.750        0.000
  YS02001593           JUNCTION        1.01          0.840        0.000
  YS02001596           JUNCTION        1.13          1.070        0.000
  YS02001600           JUNCTION        1.30          1.190        0.000
  YS02001601           JUNCTION        1.68          1.440        0.000
  YS02001602           JUNCTION        1.56          1.270        0.000
  YS02001605           JUNCTION        1.50          1.180        0.000
  YS02001607           JUNCTION        1.00          0.657        0.023
  YS02001610           JUNCTION        1.03          0.680        0.000
  YS02001613           JUNCTION        1.00          0.669        0.031
  YS02001616           JUNCTION        0.96          0.610        0.000
  YS02001619           JUNCTION        0.95          0.610        0.000
  YS02001622           JUNCTION        0.95          0.584        0.036
  YS02001625           JUNCTION        1.12          0.780        0.000
  YS02001629           JUNCTION        0.89          0.470        0.000
  YS02001633           JUNCTION        1.16          1.060        0.000
  YS02001641           JUNCTION        1.10          0.965        0.135
  YS02001644           JUNCTION        1.07          0.920        0.000
  YS02001647           JUNCTION        0.89          0.769        0.131
  YS02001649           JUNCTION        1.00          1.016        0.034
  YS02001652           JUNCTION        0.84          0.843        0.287
  YS02001655           JUNCTION        0.67          0.694        0.506
  YS02001658           JUNCTION        0.38          0.470        0.830
  YS02001661           JUNCTION        0.11          0.208        1.182
  YS02001748           JUNCTION        0.31          0.300        0.890
  YS02001751           JUNCTION        0.53          0.549        0.651
  YS02001754           JUNCTION        0.77          0.738        0.412
  YS02001757           JUNCTION        1.08          1.175        0.035
  YS02001759           JUNCTION        0.99          1.210        0.000
  YS02001762           JUNCTION        0.96          1.150        0.000
  YS02001765           JUNCTION        0.93          1.100        0.000
  YS02001767           JUNCTION        0.90          1.030        0.000
  YS02001770           JUNCTION        0.88          0.920        0.000
  YS02001774           JUNCTION        0.95          1.009        0.041
  YS02001779           JUNCTION        0.76          0.680        0.000
  YS02001783           JUNCTION        0.66          0.542        1.058
  YS02001784           JUNCTION        0.63          0.401        1.089
  YS02001786           JUNCTION        0.50          0.124        1.306
  YS02001882           JUNCTION        0.59          0.670        0.160
  YS02001884           JUNCTION        0.60          0.711        0.159
  YS02001887           JUNCTION        0.64          0.950        0.000
  YS02001890           JUNCTION        0.66          0.760        0.000
  YS02001895           JUNCTION        0.58          0.703        0.047
  YS02001898           JUNCTION        0.57          0.561        0.179
  YS02001901           JUNCTION        0.63          0.685        0.185
  YS02001904           JUNCTION        0.61          0.643        0.207
  YS02001907           JUNCTION        0.96          0.950        0.000
  YS02001910           JUNCTION        0.69          1.058        0.042
  YS02001915           JUNCTION        0.59          1.000        0.000
  YS02001918           JUNCTION        0.49          0.673        0.137
  YS02001920           JUNCTION        0.51          0.759        0.381
  YS02001923           JUNCTION        0.17          0.351        0.469
  YS02001926           JUNCTION        0.20          0.425        0.475
  YS02001929           JUNCTION        0.07          0.366        0.414
  YS02006553           JUNCTION        0.98          1.190        0.000
  YS02006556           JUNCTION        0.81          1.350        0.000
  YS02006558           JUNCTION        0.79          1.400        0.000
  YS02006561           JUNCTION        0.45          0.253        0.897
  YS02163301           JUNCTION        1.14          1.030        0.000
  YS02163601           JUNCTION        1.21          1.072        0.008
  YS02164001           JUNCTION        1.10          0.979        0.121
  
  
  *********************
  Node Flooding Summary
  *********************
  
  Flooding refers to all water that overflows a node, whether it ponds or not.
  --------------------------------------------------------------------------
                                                             Total   Maximum
                                 Maximum   Time of Max       Flood    Ponded
                        Hours       Rate    Occurrence      Volume     Depth
  Node                 Flooded       LPS   days hr:min    10^6 ltr    Meters
  --------------------------------------------------------------------------
  WS02006240              0.01      1.79      0  02:06       0.000     0.000
  WS02006242              0.01      5.76      0  02:03       0.000     0.000
  WS02006243              0.01      2.82      0  02:06       0.000     0.000
  WS02006245              0.01      3.74      0  02:06       0.000     0.000
  WS02006247              0.01      4.02      0  02:06       0.000     0.000
  WS02006248              0.02     20.36      0  02:06       0.001     0.000
  WS02006249              0.99    105.12      0  02:00       0.231     0.000
  WS02006252              0.01    245.63      0  00:00       0.000     0.000
  WS02006256              1.32    293.19      0  00:00       0.455     0.000
  YS02001586              0.61    700.32      0  02:26       0.619     0.000
  YS02001590              0.01      0.67      0  02:06       0.000     0.000
  YS02001593              0.01      1.13      0  02:06       0.000     0.000
  YS02001596              0.01      0.58      0  02:06       0.000     0.000
  YS02001600              0.01      1.86      0  02:06       0.000     0.000
  YS02001601              0.85   1667.47      0  02:25       1.908     0.000
  YS02001602              0.75     62.17      0  02:35       0.155     0.000
  YS02001605              0.01      0.17      0  02:45       0.000     0.000
  YS02001610              0.67    950.75      0  02:28       1.043     0.000
  YS02001616              0.03      1.53      0  02:26       0.000     0.000
  YS02001619              0.09    151.27      0  02:26       0.026     0.000
  YS02001625              0.65   1504.22      0  02:28       1.856     0.000
  YS02001629              0.17    223.33      0  02:25       0.057     0.000
  YS02001633              0.01      0.93      0  02:22       0.000     0.000
  YS02001644              0.32   2116.90      0  02:25       1.058     0.000
  YS02001759              0.01      1.74      0  02:22       0.000     0.000
  YS02001762              0.01      0.14      0  02:22       0.000     0.000
  YS02001767              0.01      0.37      0  02:22       0.000     0.000
  YS02001770              0.07    288.81      0  02:25       0.039     0.000
  YS02001779              0.27    850.60      0  02:26       0.450     0.000
  YS02001887              0.01      1.56      0  02:22       0.000     0.000
  YS02001890              0.23    553.23      0  02:25       0.195     0.000
  YS02001907              0.43   2703.30      0  02:25       1.939     0.000
  YS02001915              0.01      1.45      0  02:22       0.000     0.000
  YS02006553              0.01      0.76      0  02:22       0.000     0.000
  YS02006556              0.01      1.50      0  02:22       0.000     0.000
  
  
  **********************
  Storage Volume Summary
  **********************
  
  ------------------------------------------------------------------------------------------------
                         Average    Avg   Evap  Exfil     Maximum    Max    Time of Max    Maximum
                          Volume   Pcnt   Pcnt   Pcnt      Volume   Pcnt     Occurrence    Outflow
  Storage Unit           1000 m³   Full   Loss   Loss     1000 m³   Full    days hr:min        LPS
  ------------------------------------------------------------------------------------------------
  CC-storage               2.693   42.0    0.0    0.0       5.336   83.2       0  02:46    1783.53
  JK-storage               0.135   46.2    0.0    0.0       0.213   73.1       0  02:20    2300.00
  
  
  ***********************
  Outfall Loading Summary
  ***********************
  
  -----------------------------------------------------------
                         Flow       Avg       Max       Total
                         Freq      Flow      Flow      Volume
  Outfall Node           Pcnt       LPS       LPS    10^6 ltr
  -----------------------------------------------------------
  CC-1                  23.74    683.00    683.00       4.304
  CC-2                  22.80    683.00    683.00       3.748
  JK-1                  13.22   1000.00   1000.00       3.147
  JK-2                   1.12   1000.00   1000.00       0.276
  WSC                   99.96    253.38    552.62       5.945
  -----------------------------------------------------------
  System                32.17   3619.38   3918.06      17.420
  
  
  ********************
  Link Flow Summary
  ********************
  
  -----------------------------------------------------------------------------
                                 Maximum  Time of Max   Maximum    Max/    Max/
                                  |Flow|   Occurrence   |Veloc|    Full    Full
  Link                 Type          LPS  days hr:min     m/sec    Flow   Depth
  -----------------------------------------------------------------------------
  1                    CONDUIT    552.62     0  02:35      2.82    0.19    0.30
  WS02003060WS02003069 CONDUIT    552.04     0  02:33      1.64    0.22    0.34
  WS02003066WSF200     CONDUIT    535.13     0  02:33      2.85    0.09    0.22
  WS02003067WS02003066 CONDUIT    535.13     0  02:33      1.21    0.17    0.42
  WS02003069WS02003072 CONDUIT    551.78     0  02:34      1.37    0.27    0.39
  WS02003072WS02003073 CONDUIT    551.26     0  02:35      1.43    1.19    0.37
  WS02004401WS02004402 CONDUIT    541.45     0  02:37      0.98    0.65    0.89
  WS02004402WS02004403 CONDUIT    540.47     0  02:38      0.97    0.78    0.91
  WS02004403WS02004404 CONDUIT    554.89     0  02:32      0.92    0.40    0.96
  WS02004404WS02004405 CONDUIT    605.28     0  02:33      1.08    5.93    0.98
  WS02004405WS02004406 CONDUIT    542.22     0  02:31      0.99    1.07    0.96
  WS02004406WS02004407 CONDUIT    537.93     0  02:31      1.04    0.24    0.63
  WS02004407WS02004409 CONDUIT    537.55     0  02:31      1.50    0.19    0.48
  WS02004409WS02004410 CONDUIT    536.35     0  02:32      0.97    0.69    0.67
  WS02004410WS02004411 CONDUIT    536.28     0  02:32      0.94    0.73    0.69
  WS02004411WS02004412 CONDUIT    535.79     0  02:32      0.92    0.76    0.69
  WS02004412WS02004413 CONDUIT    535.43     0  02:40      0.82    0.36    0.78
  WS02004413WS02003067 CONDUIT    535.09     0  02:33      1.11    0.23    0.59
  WS02006109WS02006110 CONDUIT    576.16     0  02:46      1.15    1.11    1.00
  WS02006110WS02006113 CONDUIT    573.68     0  02:46      1.39    0.52    0.79
  WS02006111WS02006112 CONDUIT    543.62     0  02:09      1.81    0.26    0.67
  WS02006112WS02006115 CONDUIT    553.67     0  02:46      0.78    0.33    0.88
  WS02006113WS02006111 CONDUIT    561.28     0  02:22      2.47    0.67    0.46
  WS02006115WS02006116 CONDUIT    542.31     0  02:33      0.97    0.70    0.78
  WS02006116WS02004401 CONDUIT    542.07     0  02:37      0.98    0.75    0.86
  WS02006228WS02006109 CONDUIT    572.19     0  02:46      1.14    2.50    1.00
  WS02006229WS02006228 CONDUIT    568.36     0  02:46      1.14    1.88    1.00
  WS02006230WS02006229 CONDUIT    567.70     0  02:46      1.48   12.63    1.00
  WS02006231WS02006230 CONDUIT    592.90     0  02:06      1.61    8.99    1.00
  WS02006232WS02006231 CONDUIT    580.04     0  02:12      1.51    1.22    1.00
  WS02006234WS02006232 CONDUIT    578.96     0  02:12      1.50    1.17    1.00
  WS02006235WS02006234 CONDUIT    574.16     0  02:06      1.49    6.06    1.00
  WS02006238WS02006235 CONDUIT    431.04     0  04:05      1.50    0.96    1.00
  WS02006239WS02006238 CONDUIT    430.58     0  04:05      1.12    1.38    1.00
  WS02006240WS02006239 CONDUIT    431.29     0  02:00      1.24    1.36    1.00
  WS02006242WS02006240 CONDUIT    428.37     0  04:05      1.15    1.70    1.00
  WS02006243WS02006242 CONDUIT    427.79     0  04:05      1.40    0.91    1.00
  WS02006245WS02006243 CONDUIT    426.71     0  04:05      1.45    1.26    1.00
  WS02006247WS02006245 CONDUIT    425.33     0  04:05      1.43    3.37    1.00
  WS02006248WS02006247 CONDUIT    425.41     0  04:05      1.44    0.93    1.00
  WS02006249WS02006248 CONDUIT    425.34     0  02:01      1.36    2.33    1.00
  WS02006251WS02006249 CONDUIT    464.79     0  05:45      1.99    1.34    1.00
  WS02006252WS02006251 CONDUIT    404.42     0  02:06     24.61    1.48    1.00
  WS02006256WS02006235 CONDUIT    288.91     0  00:00      4.23    3.06    1.00
  WSF200WS02003060     CONDUIT    536.61     0  02:40      2.07    0.12    0.28
  YS02001580YS02001583 CONDUIT     66.89     0  02:06      0.47    0.26    1.00
  YS02001583YS02001586 CONDUIT    102.83     0  02:05      0.41    0.16    1.00
  YS02001586YS02001590 CONDUIT    319.28     0  02:22      1.23    0.56    1.00
  YS02001590YS02001593 CONDUIT    320.13     0  02:22      1.13    2.01    1.00
  YS02001593YS02001596 CONDUIT    318.10     0  02:46      1.73    0.50    1.00
  YS02001596YS02001600 CONDUIT    318.30     0  02:22      1.28    0.62    1.00
  YS02001600YS02001601 CONDUIT    318.76     0  02:22      1.13    0.55    1.00
  YS02001601YS02001602 CONDUIT    492.24     0  02:05      1.74    1.78    1.00
  YS02001602YS02001605 CONDUIT    491.95     0  02:05      1.74   10.41    1.00
  YS02001605YS02001607 CONDUIT    491.59     0  02:05      1.74    2.70    1.00
  YS02001607YS02001610 CONDUIT    491.57     0  02:05      0.63    0.47    1.00
  YS02001610YS02001613 CONDUIT    614.64     0  02:28      0.78    0.71    1.00
  YS02001613YS02001616 CONDUIT    614.82     0  02:28      0.78    0.53    1.00
  YS02001616YS02001619 CONDUIT    614.59     0  02:28      0.78    1.07    1.00
  YS02001619YS02001622 CONDUIT   1053.88     0  02:27      1.34    1.55    1.00
  YS02001622YS02001625 CONDUIT   1053.60     0  02:27      1.34    0.56    1.00
  YS02001625YS02001629 CONDUIT    885.91     0  02:08      1.13    0.42    1.00
  YS02001629YS02163301 CONDUIT    884.75     0  02:08      1.13    1.09    1.00
  YS02001633YS02163601 CONDUIT   1215.02     0  02:08      1.55    1.28    1.00
  YS02001641YS02001644 CONDUIT   1214.10     0  02:09      1.55    3.92    1.00
  YS02001644YS02001647 CONDUIT   1524.13     0  02:09      2.00    0.90    1.00
  YS02001647YS02001649 CONDUIT   1527.17     0  02:09      2.13    0.81    1.00
  YS02001649YS02001757 CONDUIT   1742.83     0  02:11      2.24    1.06    1.00
  YS02001652YS02001649 CONDUIT   1167.79     0  02:25      1.49    0.58    1.00
  YS02001655YS02001652 CONDUIT   1167.53     0  02:25      1.49    0.57    1.00
  YS02001658YS02001655 CONDUIT   1167.36     0  02:25      1.77    0.50    1.00
  YS02001661YS02001658 CONDUIT   1167.23     0  02:25      2.07    0.46    1.00
  YS02001664YS02001661 CONDUIT   1167.39     0  02:25      1.95    0.37    0.89
  YS02001745YS02001748 CONDUIT    726.35     0  02:25      1.91    0.28    0.98
  YS02001748YS02001751 CONDUIT    727.06     0  02:25      1.52    0.37    1.00
  YS02001751YS02001754 CONDUIT    726.99     0  02:25      1.36    0.35    1.00
  YS02001754YS02001757 CONDUIT    727.18     0  02:25      0.93    0.29    1.00
  YS02001757CaochengTiaoxuchi CONDUIT   2931.46     0  02:23      3.73    1.27    1.00
  YS02001759YS02001757 CONDUIT   1298.31     0  02:25      1.65    0.92    1.00
  YS02001762YS02001759 CONDUIT    672.04     0  02:18      0.86    0.77    1.00
  YS02001765YS02001762 CONDUIT    671.68     0  02:18      0.86    0.63    1.00
  YS02001767YS02001765 CONDUIT    672.23     0  02:18      0.86    0.85    1.00
  YS02001770YS02001767 CONDUIT    671.90     0  02:18      0.86    2.66    1.00
  YS02001774YS02001770 CONDUIT    851.30     0  02:26      1.08    0.54    1.00
  YS02001779YS02001774 CONDUIT    850.82     0  02:26      1.08    0.43    1.00
  YS02001783YS02001784 CONDUIT   1175.35     0  02:22      2.34    1.62    1.00
  YS02001784YS02001785 CONDUIT   1178.01     0  02:22      2.34    2.74    1.00
  YS02001786YS02001788 CONDUIT   1182.13     0  02:22      2.51    2.28    0.89
  YS02001788YS02001790 CONDUIT   1182.28     0  02:24      2.72    0.87    0.84
  YS02001790YS02001791 CONDUIT   1294.12     0  02:20      3.44    1.41    0.71
  YS02001791YS02001793 CONDUIT   1267.03     0  02:24      6.64    0.54    0.45
  YS02001793JiankangQianchi CONDUIT   1260.36     0  02:40      2.52    0.10    0.65
  YS02001882YS02001884 CONDUIT     29.25     0  02:10      0.15    0.03    1.00
  YS02001884YS02001887 CONDUIT     37.59     0  02:53      0.11    0.05    1.00
  YS02001887YS02001890 CONDUIT   1070.04     0  02:25      1.36    1.83    1.00
  YS02001890YS02001895 CONDUIT    520.57     0  02:22      0.66    0.24    1.00
  YS02001895YS02001898 CONDUIT    519.69     0  02:22      0.66    0.90    1.00
  YS02001898YS02001901 CONDUIT    517.54     0  02:22      0.66    0.33    1.00
  YS02001901YS02001904 CONDUIT    517.87     0  02:22      0.66    0.80    1.00
  YS02001904YS02001907 CONDUIT    519.60     0  02:22      0.66    0.18    1.00
  YS02001907YS02006553 CONDUIT    804.89     0  02:40      0.89    0.95    1.00
  YS02001910YS02001907 CONDUIT   1893.23     0  02:25      2.41    1.07    1.00
  YS02001915YS02001910 CONDUIT   1893.65     0  02:25      2.41    0.94    1.00
  YS02001918YS02001915 CONDUIT    628.66     0  02:25      0.80    0.35    1.00
  YS02001920YS02001918 CONDUIT    628.02     0  02:25      0.80    0.61    1.00
  YS02001923YS02001920 CONDUIT    624.89     0  02:25      0.80    0.28    1.00
  YS02001926YS02001923 CONDUIT    623.84     0  02:25      0.94    0.89    1.00
  YS02001929YS02001926 CONDUIT    623.24     0  02:25      1.06    0.30    1.00
  YS02006553YS02006556 CONDUIT    804.64     0  02:40      1.02    0.69    1.00
  YS02006556YS02006558 CONDUIT    806.24     0  02:41      1.03    0.64    1.00
  YS02006558YS02006561 CONDUIT   1171.46     0  02:22      4.14    2.59    1.00
  YS02006561YS02001783 CONDUIT   1175.15     0  02:22      2.34    0.61    1.00
  YS02163301YS02001633 CONDUIT    884.47     0  02:08      1.13    0.83    1.00
  YS02163601YS02164001 CONDUIT   1215.15     0  02:08      1.55    1.08    1.00
  YS02164001YS02001641 CONDUIT   1214.75     0  02:08      1.55    1.66    1.00
  CC-R1                PUMP       683.00     0  00:00              1.00
  CC-R2                PUMP       683.00     0  00:00              1.00
  CC-S1                PUMP       200.00     0  00:00              1.00
  CC-S2                PUMP       200.00     0  00:00              1.00
  JK-R1                PUMP      1000.00     0  00:00              1.00
  JK-R2                PUMP      1000.00     0  00:00              1.00
  JK-S                 PUMP       300.00     0  00:00              1.00
  
  
  ***************************
  Flow Classification Summary
  ***************************
  
  -------------------------------------------------------------------------------------
                      Adjusted    ---------- Fraction of Time in Flow Class ---------- 
                       /Actual         Up    Down  Sub   Sup   Up    Down  Norm  Inlet 
  Conduit               Length    Dry  Dry   Dry   Crit  Crit  Crit  Crit  Ltd   Ctrl  
  -------------------------------------------------------------------------------------
  1                       1.00   0.00  0.00  0.00  0.00  1.00  0.00  0.00  0.40  0.00
  WS02003060WS02003069    1.00   0.00  0.00  0.00  0.97  0.03  0.00  0.00  0.65  0.00
  WS02003066WSF200        1.00   0.13  0.00  0.00  0.00  0.87  0.00  0.00  0.76  0.00
  WS02003067WS02003066    1.00   0.10  0.02  0.00  0.88  0.00  0.00  0.00  0.00  0.00
  WS02003069WS02003072    1.00   0.00  0.00  0.00  0.99  0.01  0.00  0.00  0.70  0.00
  WS02003072WS02003073    1.00   0.00  0.00  0.00  0.00  0.00  0.00  1.00  0.00  0.00
  WS02004401WS02004402    1.00   0.02  0.00  0.00  0.98  0.00  0.00  0.00  0.00  0.00
  WS02004402WS02004403    1.00   0.02  0.00  0.00  0.97  0.00  0.00  0.00  0.00  0.00
  WS02004403WS02004404    1.00   0.00  0.03  0.00  0.97  0.00  0.00  0.00  0.00  0.00
  WS02004404WS02004405    1.00   0.00  0.00  0.00  1.00  0.00  0.00  0.00  0.02  0.00
  WS02004405WS02004406    1.00   0.00  0.00  0.00  1.00  0.00  0.00  0.00  0.00  0.00
  WS02004406WS02004407    1.00   0.00  0.05  0.00  0.95  0.00  0.00  0.00  0.00  0.00
  WS02004407WS02004409    1.00   0.05  0.00  0.00  0.94  0.01  0.00  0.00  0.94  0.00
  WS02004409WS02004410    1.00   0.05  0.00  0.00  0.95  0.00  0.00  0.00  0.03  0.00
  WS02004410WS02004411    1.00   0.05  0.00  0.00  0.95  0.00  0.00  0.00  0.01  0.00
  WS02004411WS02004412    1.00   0.05  0.00  0.00  0.95  0.00  0.00  0.00  0.00  0.00
  WS02004412WS02004413    1.00   0.05  0.00  0.00  0.94  0.00  0.00  0.00  0.01  0.00
  WS02004413WS02003067    1.00   0.06  0.04  0.00  0.00  0.00  0.90  0.00  0.00  0.00
  WS02006109WS02006110    1.00   0.00  0.01  0.00  0.98  0.00  0.01  0.00  0.00  0.00
  WS02006110WS02006113    1.00   0.01  0.01  0.00  0.98  0.00  0.00  0.00  0.00  0.00
  WS02006111WS02006112    1.00   0.02  0.00  0.00  0.98  0.00  0.00  0.00  0.98  0.00
  WS02006112WS02006115    1.00   0.02  0.00  0.00  0.97  0.00  0.00  0.00  0.00  0.00
  WS02006113WS02006111    1.00   0.02  0.00  0.00  0.00  0.98  0.00  0.00  0.15  0.00
  WS02006115WS02006116    1.00   0.02  0.00  0.00  0.97  0.00  0.00  0.01  0.00  0.00
  WS02006116WS02004401    1.00   0.02  0.00  0.00  0.98  0.00  0.00  0.00  0.00  0.00
  WS02006228WS02006109    1.00   0.00  0.00  0.00  1.00  0.00  0.00  0.00  0.00  0.00
  WS02006229WS02006228    1.00   0.00  0.00  0.00  0.99  0.00  0.00  0.01  0.00  0.00
  WS02006230WS02006229    1.00   0.00  0.00  0.00  0.99  0.00  0.00  0.01  0.01  0.00
  WS02006231WS02006230    1.00   0.00  0.00  0.00  0.30  0.00  0.70  0.00  0.00  0.00
  WS02006232WS02006231    1.00   0.00  0.00  0.00  0.99  0.00  0.01  0.00  0.00  0.00
  WS02006234WS02006232    1.00   0.00  0.00  0.00  1.00  0.00  0.00  0.00  0.06  0.00
  WS02006235WS02006234    1.00   0.00  0.00  0.00  0.91  0.00  0.09  0.00  0.00  0.00
  WS02006238WS02006235    1.00   0.00  0.00  0.00  1.00  0.00  0.00  0.00  0.00  0.00
  WS02006239WS02006238    1.00   0.00  0.00  0.00  1.00  0.00  0.00  0.00  0.16  0.00
  WS02006240WS02006239    1.00   0.00  0.00  0.00  0.74  0.00  0.00  0.26  0.05  0.00
  WS02006242WS02006240    1.00   0.00  0.00  0.00  0.99  0.00  0.01  0.00  0.00  0.00
  WS02006243WS02006242    1.00   0.00  0.00  0.00  0.99  0.00  0.00  0.01  0.46  0.00
  WS02006245WS02006243    1.00   0.00  0.00  0.00  0.81  0.00  0.00  0.19  0.01  0.00
  WS02006247WS02006245    1.00   0.00  0.00  0.00  0.98  0.00  0.00  0.02  0.00  0.00
  WS02006248WS02006247    1.00   0.00  0.00  0.00  0.98  0.00  0.00  0.02  0.35  0.00
  WS02006249WS02006248    1.00   0.00  0.00  0.00  0.53  0.00  0.47  0.00  0.00  0.00
  WS02006251WS02006249    1.00   0.00  0.00  0.00  0.99  0.01  0.00  0.00  0.49  0.00
  WS02006252WS02006251    1.00   0.00  0.50  0.00  0.13  0.00  0.37  0.00  0.00  0.00
  WS02006256WS02006235    1.00   0.00  0.00  0.00  0.99  0.01  0.00  0.00  0.00  0.00
  WSF200WS02003060        1.00   0.00  0.13  0.00  0.21  0.67  0.00  0.00  0.47  0.00
  YS02001580YS02001583    1.00   0.26  0.53  0.00  0.22  0.00  0.00  0.00  0.62  0.00
  YS02001583YS02001586    1.00   0.40  0.33  0.00  0.27  0.00  0.00  0.00  0.62  0.00
  YS02001586YS02001590    1.00   0.13  0.00  0.00  0.47  0.04  0.00  0.37  0.37  0.00
  YS02001590YS02001593    1.00   0.13  0.01  0.00  0.14  0.00  0.73  0.00  0.00  0.00
  YS02001593YS02001596    1.00   0.13  0.00  0.00  0.16  0.01  0.00  0.69  0.02  0.00
  YS02001596YS02001600    1.00   0.13  0.00  0.00  0.23  0.01  0.00  0.62  0.05  0.00
  YS02001600YS02001601    1.00   0.13  0.01  0.00  0.86  0.00  0.00  0.00  0.58  0.00
  YS02001601YS02001602    1.00   0.13  0.01  0.00  0.87  0.00  0.00  0.00  0.00  0.00
  YS02001602YS02001605    1.00   0.13  0.00  0.00  0.87  0.00  0.00  0.00  0.00  0.00
  YS02001605YS02001607    1.00   0.13  0.00  0.00  0.87  0.00  0.00  0.00  0.00  0.00
  YS02001607YS02001610    1.00   0.13  0.01  0.00  0.86  0.00  0.00  0.00  0.01  0.00
  YS02001610YS02001613    1.00   0.13  0.00  0.00  0.87  0.00  0.00  0.00  0.00  0.00
  YS02001613YS02001616    1.00   0.13  0.00  0.00  0.87  0.00  0.00  0.00  0.00  0.00
  YS02001616YS02001619    1.00   0.13  0.00  0.00  0.87  0.00  0.00  0.00  0.00  0.00
  YS02001619YS02001622    1.00   0.13  0.00  0.00  0.87  0.00  0.00  0.00  0.27  0.00
  YS02001622YS02001625    1.00   0.13  0.00  0.00  0.87  0.00  0.00  0.00  0.03  0.00
  YS02001625YS02001629    1.00   0.13  0.04  0.00  0.20  0.00  0.63  0.00  0.00  0.00
  YS02001629YS02163301    1.00   0.15  0.01  0.00  0.84  0.00  0.00  0.00  0.00  0.00
  YS02001633YS02163601    1.00   0.00  0.01  0.00  0.99  0.00  0.00  0.00  0.14  0.00
  YS02001641YS02001644    1.00   0.00  0.01  0.00  0.99  0.00  0.00  0.00  0.00  0.00
  YS02001644YS02001647    1.00   0.00  0.16  0.00  0.84  0.00  0.00  0.00  0.00  0.00
  YS02001647YS02001649    1.00   0.00  0.16  0.00  0.59  0.25  0.00  0.00  0.56  0.00
  YS02001649YS02001757    1.00   0.00  0.00  0.00  0.84  0.16  0.00  0.00  0.38  0.00
  YS02001652YS02001649    1.00   0.00  0.00  0.00  0.97  0.03  0.00  0.00  0.69  0.00
  YS02001655YS02001652    1.00   0.00  0.00  0.00  0.23  0.01  0.00  0.75  0.06  0.00
  YS02001658YS02001655    1.00   0.00  0.14  0.00  0.69  0.18  0.00  0.00  0.65  0.00
  YS02001661YS02001658    1.00   0.14  0.00  0.00  0.53  0.33  0.00  0.00  0.67  0.00
  YS02001664YS02001661    1.00   0.13  0.00  0.00  0.79  0.09  0.00  0.00  0.83  0.00
  YS02001745YS02001748    1.00   0.00  0.00  0.00  0.13  0.00  0.00  0.86  0.04  0.00
  YS02001748YS02001751    1.00   0.00  0.00  0.00  0.84  0.16  0.00  0.00  0.72  0.00
  YS02001751YS02001754    1.00   0.00  0.00  0.00  0.20  0.01  0.00  0.79  0.04  0.00
  YS02001754YS02001757    1.00   0.00  0.00  0.00  1.00  0.00  0.00  0.00  0.76  0.00
  YS02001757CaochengTiaoxuchi    1.00   0.00  0.00  0.00  1.00  0.00  0.00  0.00  0.63  0.00
  YS02001759YS02001757    1.00   0.00  0.00  0.00  0.99  0.01  0.00  0.00  0.49  0.00
  YS02001762YS02001759    1.00   0.00  0.00  0.00  1.00  0.00  0.00  0.00  0.04  0.00
  YS02001765YS02001762    1.00   0.00  0.00  0.00  1.00  0.00  0.00  0.00  0.61  0.00
  YS02001767YS02001765    1.00   0.00  0.00  0.00  1.00  0.00  0.00  0.00  0.01  0.00
  YS02001770YS02001767    1.00   0.00  0.00  0.00  1.00  0.00  0.00  0.00  0.00  0.00
  YS02001774YS02001770    1.00   0.00  0.13  0.00  0.71  0.00  0.16  0.00  0.02  0.00
  YS02001779YS02001774    1.00   0.00  0.00  0.00  1.00  0.00  0.00  0.00  0.71  0.00
  YS02001783YS02001784    1.00   0.00  0.17  0.00  0.83  0.00  0.00  0.00  0.54  0.00
  YS02001784YS02001785    1.00   0.00  0.00  0.00  1.00  0.00  0.00  0.00  0.16  0.00
  YS02001786YS02001788    1.00   0.00  0.00  0.00  0.79  0.21  0.00  0.00  0.00  0.00
  YS02001788YS02001790    1.00   0.00  0.00  0.00  0.21  0.79  0.00  0.00  0.78  0.00
  YS02001790YS02001791    1.00   0.00  0.00  0.00  0.01  0.99  0.00  0.00  0.16  0.00
  YS02001791YS02001793    1.00   0.00  0.00  0.00  0.00  1.00  0.00  0.00  0.01  0.00
  YS02001793JiankangQianchi    1.00   0.00  0.00  0.00  0.99  0.01  0.00  0.00  0.94  0.00
  YS02001882YS02001884    1.00   0.15  0.01  0.00  0.85  0.00  0.00  0.00  0.00  0.00
  YS02001884YS02001887    1.00   0.06  0.05  0.00  0.89  0.00  0.00  0.00  0.00  0.00
  YS02001887YS02001890    1.00   0.00  0.00  0.00  0.97  0.00  0.03  0.00  0.00  0.00
  YS02001890YS02001895    1.00   0.00  0.15  0.00  0.84  0.00  0.00  0.00  0.00  0.00
  YS02001895YS02001898    1.00   0.16  0.00  0.00  0.83  0.00  0.02  0.00  0.00  0.00
  YS02001898YS02001901    1.00   0.16  0.00  0.00  0.84  0.00  0.00  0.00  0.01  0.00
  YS02001901YS02001904    1.00   0.16  0.00  0.00  0.84  0.00  0.00  0.00  0.00  0.00
  YS02001904YS02001907    1.00   0.00  0.16  0.00  0.84  0.00  0.00  0.00  0.00  0.00
  YS02001907YS02006553    1.00   0.00  0.02  0.00  0.98  0.00  0.00  0.00  0.00  0.00
  YS02001910YS02001907    1.00   0.00  0.00  0.00  0.97  0.00  0.00  0.03  0.12  0.00
  YS02001915YS02001910    1.00   0.00  0.00  0.00  0.97  0.03  0.00  0.00  0.14  0.00
  YS02001918YS02001915    1.00   0.00  0.01  0.00  0.98  0.02  0.00  0.00  0.72  0.00
  YS02001920YS02001918    1.00   0.00  0.01  0.00  0.99  0.00  0.00  0.00  0.00  0.00
  YS02001923YS02001920    1.00   0.00  0.00  0.00  1.00  0.00  0.00  0.00  0.91  0.00
  YS02001926YS02001923    1.00   0.00  0.07  0.00  0.07  0.00  0.85  0.00  0.00  0.00
  YS02001929YS02001926    1.00   0.00  0.13  0.00  0.87  0.00  0.00  0.00  0.81  0.00
  YS02006553YS02006556    1.00   0.01  0.00  0.00  0.99  0.00  0.00  0.00  0.03  0.00
  YS02006556YS02006558    1.00   0.00  0.00  0.00  1.00  0.00  0.00  0.00  0.00  0.00
  YS02006558YS02006561    1.00   0.17  0.00  0.00  0.07  0.76  0.00  0.00  0.17  0.00
  YS02006561YS02001783    1.00   0.17  0.00  0.00  0.11  0.72  0.00  0.00  0.66  0.00
  YS02163301YS02001633    1.00   0.00  0.15  0.00  0.85  0.00  0.00  0.00  0.00  0.00
  YS02163601YS02164001    1.00   0.00  0.08  0.00  0.92  0.00  0.00  0.00  0.00  0.00
  YS02164001YS02001641    1.00   0.01  0.07  0.00  0.92  0.00  0.00  0.00  0.05  0.00
  
  
  *************************
  Conduit Surcharge Summary
  *************************
  
  ----------------------------------------------------------------------------
                                                           Hours        Hours 
                         --------- Hours Full --------   Above Full   Capacity
  Conduit                Both Ends  Upstream  Dnstream   Normal Flow   Limited
  ----------------------------------------------------------------------------
  WS02003072WS02003073        0.01      0.01      0.01      1.40         0.01
  WS02004403WS02004404        0.01      0.01      0.01      0.01         0.01
  WS02004404WS02004405        0.01      0.01      0.01      3.83         0.01
  WS02004405WS02004406        0.01      0.01      0.01      0.77         0.01
  WS02006109WS02006110        0.71      0.71      2.30      0.89         0.01
  WS02006110WS02006113        0.01      0.01      2.28      0.01         0.01
  WS02006111WS02006112        0.01      0.01      2.46      0.01         0.01
  WS02006112WS02006115        0.01      0.01      1.04      0.01         0.01
  WS02006228WS02006109        2.26      2.30      2.26      2.68         2.26
  WS02006229WS02006228        2.25      2.26      2.25      2.42         2.23
  WS02006230WS02006229        2.35      2.39      2.35      4.62         2.35
  WS02006231WS02006230        0.73      0.73      1.01      4.19         0.01
  WS02006232WS02006231        0.93      0.93      2.30      1.01         0.01
  WS02006234WS02006232        2.18      2.18      2.30      1.00         0.97
  WS02006235WS02006234        1.30      1.31      2.19      3.98         0.03
  WS02006238WS02006235        2.22      2.22      2.29      0.01         0.01
  WS02006239WS02006238        2.26      2.28      2.26      2.34         2.04
  WS02006240WS02006239        2.23      2.28      2.23      2.34         1.90
  WS02006242WS02006240        2.26      2.26      2.30      2.47         0.01
  WS02006243WS02006242        2.27      2.27      2.29      0.01         0.07
  WS02006245WS02006243        2.26      2.26      2.27      1.56         1.55
  WS02006247WS02006245        2.26      2.27      2.26      3.74         2.24
  WS02006248WS02006247        2.26      2.26      2.26      0.01         0.07
  WS02006249WS02006248        2.25      2.26      2.26      3.70         0.01
  WS02006251WS02006249        2.25      2.25      2.26      2.41         2.16
  WS02006252WS02006251        2.47      2.47      2.48      2.47         0.01
  WS02006256WS02006235        4.02      4.07      6.63      1.34         0.01
  YS02001580YS02001583        0.78      0.78      0.85      0.01         0.01
  YS02001583YS02001586        0.78      0.78      0.93      0.01         0.01
  YS02001586YS02001590        0.94      0.94      1.01      0.01         0.01
  YS02001590YS02001593        1.01      1.01      1.03      1.00         0.01
  YS02001593YS02001596        1.02      1.02      1.13      0.01         0.01
  YS02001596YS02001600        1.19      1.19      1.30      0.01         0.01
  YS02001600YS02001601        1.37      1.37      1.67      0.01         0.01
  YS02001601YS02001602        1.56      1.56      1.72      1.30         0.01
  YS02001602YS02001605        1.50      1.50      1.56      2.52         0.01
  YS02001605YS02001607        1.45      1.50      1.46      1.60         1.43
  YS02001607YS02001610        1.00      1.00      1.03      0.01         0.01
  YS02001610YS02001613        1.00      1.00      1.03      0.01         0.01
  YS02001613YS02001616        0.96      0.96      1.00      0.01         0.01
  YS02001616YS02001619        0.95      0.95      0.96      0.07         0.08
  YS02001619YS02001622        0.95      0.95      0.95      0.98         0.87
  YS02001622YS02001625        0.95      0.95      1.12      0.01         0.01
  YS02001625YS02001629        0.89      0.89      1.12      0.01         0.01
  YS02001629YS02163301        1.12      1.12      1.14      0.08         0.13
  YS02001633YS02163601        1.16      1.16      1.21      0.23         0.24
  YS02001641YS02001644        1.07      1.10      1.07      1.77         1.05
  YS02001644YS02001647        0.89      0.89      1.07      0.01         0.01
  YS02001647YS02001649        0.89      0.89      1.00      0.01         0.01
  YS02001649YS02001757        1.00      1.00      1.08      0.02         0.04
  YS02001652YS02001649        0.86      0.86      1.00      0.01         0.01
  YS02001655YS02001652        0.67      0.67      0.84      0.01         0.01
  YS02001658YS02001655        0.38      0.38      0.67      0.01         0.01
  YS02001661YS02001658        0.11      0.11      0.37      0.01         0.01
  YS02001664YS02001661        0.01      0.01      0.17      0.01         0.01
  YS02001745YS02001748        0.01      0.01      0.31      0.01         0.01
  YS02001748YS02001751        0.34      0.34      0.53      0.01         0.01
  YS02001751YS02001754        0.53      0.53      0.77      0.01         0.01
  YS02001754YS02001757        0.82      0.82      1.08      0.01         0.01
  YS02001757CaochengTiaoxuchi        1.08      1.08      2.22      0.42         0.42
  YS02001759YS02001757        0.99      0.99      1.08      0.01         0.01
  YS02001762YS02001759        0.96      0.96      0.99      0.01         0.01
  YS02001765YS02001762        0.93      0.93      0.96      0.01         0.01
  YS02001767YS02001765        0.90      0.90      0.93      0.01         0.02
  YS02001770YS02001767        0.90      0.90      0.90      0.58         0.54
  YS02001774YS02001770        0.88      0.88      0.95      0.01         0.01
  YS02001779YS02001774        0.76      0.76      0.95      0.01         0.01
  YS02001783YS02001784        0.63      0.66      0.63      0.86         0.63
  YS02001784YS02001785        0.50      0.63      0.50      1.17         0.50
  YS02001786YS02001788        0.01      0.50      0.01      1.01         0.01
  YS02001790YS02001791        0.01      0.01      0.01      0.61         0.01
  YS02001793JiankangQianchi        0.01      0.01      7.36      0.01         0.01
  YS02001882YS02001884        0.59      0.59      0.60      0.01         0.01
  YS02001884YS02001887        0.63      0.63      0.64      0.01         0.01
  YS02001887YS02001890        0.66      0.66      0.67      0.17         0.01
  YS02001890YS02001895        0.58      0.58      0.69      0.01         0.01
  YS02001895YS02001898        0.57      0.57      0.58      0.01         0.01
  YS02001898YS02001901        0.58      0.58      0.63      0.01         0.01
  YS02001901YS02001904        0.61      0.61      0.63      0.01         0.01
  YS02001904YS02001907        0.61      0.61      0.98      0.01         0.01
  YS02001907YS02006553        1.19      1.19      1.26      0.01         0.01
  YS02001910YS02001907        0.69      0.69      0.96      0.05         0.05
  YS02001915YS02001910        0.59      0.59      0.69      0.01         0.01
  YS02001918YS02001915        0.49      0.49      0.59      0.01         0.01
  YS02001920YS02001918        0.49      0.49      0.51      0.01         0.01
  YS02001923YS02001920        0.44      0.44      0.51      0.01         0.01
  YS02001926YS02001923        0.17      0.17      0.20      0.01         0.01
  YS02001929YS02001926        0.07      0.07      0.20      0.01         0.01
  YS02006553YS02006556        0.81      0.81      0.98      0.01         0.01
  YS02006556YS02006558        0.89      0.89      1.00      0.01         0.01
  YS02006558YS02006561        0.53      0.79      0.53      1.11         0.53
  YS02006561YS02001783        0.45      0.45      0.66      0.01         0.01
  YS02163301YS02001633        1.14      1.14      1.18      0.01         0.01
  YS02163601YS02164001        1.10      1.10      1.21      0.09         0.01
  YS02164001YS02001641        1.10      1.10      1.10      0.70         0.62
  
  
  ***************
  Pumping Summary
  ***************
  
  ---------------------------------------------------------------------------------------------------------
                                                  Min       Avg       Max     Total     Power    % Time Off
                        Percent   Number of      Flow      Flow      Flow    Volume     Usage    Pump Curve
  Pump                 Utilized   Start-Ups       LPS       LPS       LPS  10^6 ltr     Kw-hr    Low   High
  ---------------------------------------------------------------------------------------------------------
  CC-R1                   21.89           6      0.00    683.00    683.00     4.306     82.37    0.0    9.9
  CC-R2                   19.07           6      0.00    683.00    683.00     3.751     71.42    0.0   22.4
  CC-S1                   45.49           6      0.00    200.00    200.00     2.620     14.60    0.0    0.0
  CC-S2                   33.02           7      0.00    200.00    200.00     1.902     10.32    0.0    0.0
  JK-R1                   10.94          18      0.00   1000.00   1000.00     3.151     36.79    0.0    0.0
  JK-R2                    0.97           4      0.00   1000.00   1000.00     0.279      2.37    0.0    0.0
  JK-S                    16.50          30      0.00    300.00    300.00     1.426     19.47    0.0    0.0
  

  Analysis begun on:  Mon Feb 24 09:49:23 2025
  Analysis ended on:  Mon Feb 24 09:49:25 2025
  Total elapsed time: 00:00:02