
  EPA STORM WATER MANAGEMENT MODEL - VERSION 5.2 (Build 5.2.4)
  PYSWMM TOOLKIT API - VERSION v1.0 (2023-11-27)
  ------------------------------------------------------------

  WARNING 04: minimum elevation drop used for Conduit WS02004404WS02004405
  WARNING 03: negative offset ignored for Link YS02001904YS02001907
  
  ****************
  Analysis Options
  ****************
  Flow Units ............... LPS
  Process Models:
    Rainfall/Runoff ........ YES
    RDII ................... NO
    Snowmelt ............... NO
    Groundwater ............ NO
    Flow Routing ........... YES
    Ponding Allowed ........ NO
    Water Quality .......... NO
  Infiltration Method ...... HORTON
  Flow Routing Method ...... DYNWAVE
  Surcharge Method ......... EXTRAN
  Starting Date ............ 08/28/2015 08:00:00
  Ending Date .............. 08/28/2015 16:00:00
  Antecedent Dry Days ...... 8.0
  Report Time Step ......... 00:01:00
  Wet Time Step ............ 00:01:00
  Dry Time Step ............ 00:01:00
  Routing Time Step ........ 30.00 sec
  Variable Time Step ....... YES
  Maximum Trials ........... 8
  Number of Threads ........ 4
  Head Tolerance ........... 0.001500 m
  
  
  **************************        Volume         Depth
  Runoff Quantity Continuity     hectare-m            mm
  **************************     ---------       -------
  Total Precipitation ......         2.296        69.221
  Evaporation Loss .........         0.000         0.000
  Infiltration Loss ........         0.103         3.093
  Surface Runoff ...........         2.161        65.148
  Final Storage ............         0.033         0.996
  Continuity Error (%) .....        -0.024
  
  
  **************************        Volume        Volume
  Flow Routing Continuity        hectare-m      10^6 ltr
  **************************     ---------     ---------
  Dry Weather Inflow .......         0.025         0.251
  Wet Weather Inflow .......         2.161        21.608
  Groundwater Inflow .......         0.000         0.000
  RDII Inflow ..............         0.000         0.000
  External Inflow ..........         0.083         0.834
  External Outflow .........         1.566        15.658
  Flooding Loss ............         0.771         7.707
  Evaporation Loss .........         0.000         0.000
  Exfiltration Loss ........         0.000         0.000
  Initial Stored Volume ....         0.243         2.431
  Final Stored Volume ......         0.182         1.819
  Continuity Error (%) .....        -0.242
  
  
  *************************
  Highest Continuity Errors
  *************************
  Node YS02001583 (-4.98%)
  Node YS02001884 (4.89%)
  Node WS02006256 (-1.14%)
  
  
  ***************************
  Time-Step Critical Elements
  ***************************
  Link WS02006252WS02006251 (50.99%)
  Link WS02006238WS02006235 (11.18%)
  Link YS02001791YS02001793 (7.95%)
  Link WS02003066WSF200 (7.68%)
  Link WS02004404WS02004405 (7.02%)
  
  
  ********************************
  Highest Flow Instability Indexes
  ********************************
  Link WS02006113WS02006111 (43)
  Link WS02006111WS02006112 (22)
  Link WS02006238WS02006235 (14)
  Link WS02006252WS02006251 (14)
  Link WS02006256WS02006235 (13)
  
  
  *********************************
  Most Frequent Nonconverging Nodes
  *********************************
  Node CC-1 (9.85%)
  Node CC-2 (9.85%)
  Node JK-1 (9.85%)
  Node JK-2 (9.85%)
  Node WSC (9.85%)
  
  
  *************************
  Routing Time Step Summary
  *************************
  Minimum Time Step           :     0.02 sec
  Average Time Step           :     1.84 sec
  Maximum Time Step           :     7.04 sec
  % of Time in Steady State   :     0.00
  Average Iterations per Step :     2.90
  % of Steps Not Converging   :     9.85
  Time Step Frequencies       :
     30.000 - 13.228 sec      :     0.00 %
     13.228 -  5.833 sec      :     5.10 %
      5.833 -  2.572 sec      :    21.06 %
      2.572 -  1.134 sec      :    17.89 %
      1.134 -  0.500 sec      :    55.95 %
  
  
  ***************************
  Subcatchment Runoff Summary
  ***************************
  
  ------------------------------------------------------------------------------------------------------------------------------
                            Total      Total      Total      Total     Imperv       Perv      Total       Total     Peak  Runoff
                           Precip      Runon       Evap      Infil     Runoff     Runoff     Runoff      Runoff   Runoff   Coeff
  Subcatchment                 mm         mm         mm         mm         mm         mm         mm    10^6 ltr      LPS
  ------------------------------------------------------------------------------------------------------------------------------
  sub60                     69.22       0.00       0.00       1.83      59.72       6.48      66.20        0.87   653.10   0.956
  sub61                     69.22       0.00       0.00       2.66      56.33       9.11      65.44        1.20   908.71   0.945
  sub62                     69.22       0.00       0.00       1.22      62.40       4.32      66.72        1.83  1279.29   0.964
  sub63                     69.22       0.00       0.00       4.96      48.18      15.12      63.30        1.44  1039.26   0.915
  sub64                     69.22       0.00       0.00       2.50      57.63       7.89      65.52        1.57  1050.58   0.947
  sub65                     69.22       0.00       0.00       2.16      58.97       6.84      65.81        1.81  1172.64   0.951
  sub66                     69.22       0.00       0.00       6.20      48.07      13.88      61.95        2.89  1579.01   0.895
  sub67                     69.22       0.00       0.00       1.17      62.44       4.37      66.82        1.24   971.92   0.965
  sub68                     69.22       0.00       0.00       2.20      58.35       7.49      65.84        1.81  1314.08   0.951
  sub69                     69.22       0.00       0.00       2.00      58.73       8.39      67.12        2.48  1556.60   0.970
  sub70                     69.22       0.00       0.00       6.73      45.52      16.81      62.33        1.80   885.47   0.900
  sub71                     69.22       0.00       0.00       1.25      62.36       4.28      66.64        1.74  1130.99   0.963
  sub72                     69.22       0.00       0.00       1.12      62.97       3.73      66.70        0.92   549.34   0.964
  
  
  ******************
  Node Depth Summary
  ******************
  
  ---------------------------------------------------------------------------------
                                 Average  Maximum  Maximum  Time of Max    Reported
                                   Depth    Depth      HGL   Occurrence   Max Depth
  Node                 Type       Meters   Meters   Meters  days hr:min      Meters
  ---------------------------------------------------------------------------------
  WS02003060           JUNCTION     0.23     0.38     5.32     0  02:47        0.38
  WS02003066           JUNCTION     0.19     0.30     5.85     0  02:47        0.30
  WS02003067           JUNCTION     0.50     0.70     6.02     0  02:47        0.70
  WS02003069           JUNCTION     0.26     0.43     5.01     0  02:48        0.43
  WS02003072           JUNCTION     0.32     0.50     4.87     0  02:49        0.50
  WS02003073           JUNCTION     0.18     0.30     4.36     0  02:49        0.30
  WS02004401           JUNCTION     0.57     0.85     6.85     0  02:44        0.85
  WS02004402           JUNCTION     0.61     0.88     6.84     0  02:45        0.88
  WS02004403           JUNCTION     0.63     0.89     6.82     0  02:45        0.89
  WS02004404           JUNCTION     0.71     0.96     6.81     0  02:45        0.96
  WS02004405           JUNCTION     0.70     0.96     6.81     0  02:45        0.95
  WS02004406           JUNCTION     0.72     0.96     6.79     0  02:45        0.96
  WS02004407           JUNCTION     0.17     0.30     6.61     0  02:45        0.30
  WS02004409           JUNCTION     0.38     0.67     6.44     0  02:46        0.67
  WS02004410           JUNCTION     0.41     0.68     6.40     0  02:46        0.68
  WS02004411           JUNCTION     0.43     0.69     6.37     0  02:46        0.69
  WS02004412           JUNCTION     0.45     0.70     6.34     0  02:46        0.70
  WS02004413           JUNCTION     0.61     0.86     6.33     0  02:47        0.86
  WS02006109           JUNCTION     0.63     1.13     7.75     0  02:14        1.01
  WS02006110           JUNCTION     0.64     1.15     7.74     0  02:14        0.95
  WS02006111           JUNCTION     0.17     0.29     6.99     0  02:48        0.29
  WS02006112           JUNCTION     0.73     1.08     6.96     0  02:53        1.06
  WS02006113           JUNCTION     0.26     0.46     7.35     0  02:54        0.46
  WS02006115           JUNCTION     0.46     0.75     6.89     0  02:44        0.75
  WS02006116           JUNCTION     0.54     0.83     6.87     0  02:44        0.83
  WS02006228           JUNCTION     0.62     1.17     7.82     0  02:14        1.16
  WS02006229           JUNCTION     0.60     1.22     7.91     0  02:14        1.21
  WS02006230           JUNCTION     0.59     1.42     8.17     0  02:14        1.42
  WS02006231           JUNCTION     0.41     1.55     8.67     0  02:15        1.10
  WS02006232           JUNCTION     0.54     1.31     8.35     0  02:35        1.29
  WS02006234           JUNCTION     0.46     1.49     8.65     0  02:35        1.30
  WS02006235           JUNCTION     0.50     1.49     8.66     0  02:13        1.41
  WS02006238           JUNCTION     0.53     1.54     8.69     0  02:13        1.45
  WS02006239           JUNCTION     0.50     1.54     8.75     0  02:13        1.43
  WS02006240           JUNCTION     0.46     1.51     8.80     0  02:13        1.37
  WS02006242           JUNCTION     0.53     1.55     8.82     0  02:13        1.41
  WS02006243           JUNCTION     0.44     1.42     8.84     0  02:13        1.27
  WS02006245           JUNCTION     0.44     1.33     8.82     0  02:13        1.21
  WS02006247           JUNCTION     0.47     1.27     8.77     0  02:13        1.19
  WS02006248           JUNCTION     0.43     1.10     8.69     0  02:13        1.10
  WS02006249           JUNCTION     0.46     1.09     8.69     0  02:08        1.09
  WS02006251           JUNCTION     0.46     1.74     9.41     0  02:08        1.15
  WS02006252           JUNCTION     0.34     1.50     9.74     0  00:00        0.72
  WS02006256           JUNCTION     0.97     2.35     9.28     0  00:00        2.35
  WSF200               JUNCTION     0.16     0.29     5.52     0  02:47        0.29
  YS02001580           JUNCTION     0.07     1.05     9.59     0  02:10        0.77
  YS02001583           JUNCTION     0.11     0.99     9.48     0  02:10        0.84
  YS02001586           JUNCTION     0.17     1.13     9.30     0  02:10        1.13
  YS02001590           JUNCTION     0.26     1.40     9.26     0  02:10        1.38
  YS02001593           JUNCTION     0.19     1.33     9.20     0  02:10        1.29
  YS02001596           JUNCTION     0.27     1.68     9.10     0  02:10        1.65
  YS02001600           JUNCTION     0.33     1.87     9.00     0  02:10        1.87
  YS02001601           JUNCTION     0.51     2.06     8.90     0  02:10        2.06
  YS02001602           JUNCTION     0.43     1.87     8.77     0  02:13        1.87
  YS02001605           JUNCTION     0.40     1.78     8.68     0  02:29        1.78
  YS02001607           JUNCTION     0.40     1.68     8.53     0  02:24        1.68
  YS02001610           JUNCTION     0.45     1.68     8.48     0  02:13        1.68
  YS02001613           JUNCTION     0.41     1.68     8.52     0  02:24        1.68
  YS02001616           JUNCTION     0.33     1.61     8.52     0  02:24        1.61
  YS02001619           JUNCTION     0.31     1.61     8.54     0  02:24        1.61
  YS02001622           JUNCTION     0.30     1.58     8.48     0  02:24        1.58
  YS02001625           JUNCTION     0.57     1.78     8.38     0  02:14        1.78
  YS02001629           JUNCTION     0.42     1.85     8.40     0  02:15        1.85
  YS02001633           JUNCTION     0.50     2.08     8.53     0  02:24        2.08
  YS02001641           JUNCTION     0.49     1.95     8.39     0  02:17        1.95
  YS02001644           JUNCTION     0.49     1.92     8.35     0  02:16        1.92
  YS02001647           JUNCTION     0.28     1.80     8.41     0  02:24        1.80
  YS02001649           JUNCTION     0.32     2.03     8.42     0  02:24        2.03
  YS02001652           JUNCTION     0.22     2.09     8.69     0  02:15        1.92
  YS02001655           JUNCTION     0.17     1.83     8.68     0  02:15        1.68
  YS02001658           JUNCTION     0.12     1.58     8.72     0  02:16        1.48
  YS02001661           JUNCTION     0.15     1.27     8.68     0  02:21        1.21
  YS02001664           JUNCTION     0.05     0.70     8.63     0  02:24        0.69
  YS02001745           JUNCTION     0.07     0.93     8.45     0  02:24        0.92
  YS02001748           JUNCTION     0.12     1.37     8.45     0  02:18        1.34
  YS02001751           JUNCTION     0.14     1.54     8.42     0  02:24        1.52
  YS02001754           JUNCTION     0.19     1.82     8.43     0  02:24        1.82
  YS02001757           JUNCTION     0.35     2.13     8.39     0  02:24        2.13
  YS02001759           JUNCTION     0.29     2.21     8.57     0  02:24        2.21
  YS02001762           JUNCTION     0.28     2.15     8.55     0  02:24        2.15
  YS02001765           JUNCTION     0.26     2.06     8.51     0  02:24        2.06
  YS02001767           JUNCTION     0.25     1.98     8.47     0  02:24        1.98
  YS02001770           JUNCTION     0.26     1.95     8.44     0  02:18        1.95
  YS02001774           JUNCTION     0.33     2.02     8.44     0  02:18        2.02
  YS02001779           JUNCTION     0.17     1.68     8.37     0  02:14        1.68
  YS02001783           JUNCTION     0.22     1.28     7.42     0  02:24        1.23
  YS02001784           JUNCTION     0.23     1.14     7.21     0  02:24        1.11
  YS02001786           JUNCTION     0.20     0.90     6.93     0  02:24        0.88
  YS02001788           JUNCTION     0.14     0.62     6.60     0  02:22        0.62
  YS02001790           JUNCTION     0.17     0.73     6.37     0  02:24        0.72
  YS02001791           JUNCTION     0.11     0.44     5.91     0  02:22        0.44
  YS02001793           JUNCTION     0.06     0.30     5.13     0  02:31        0.29
  YS02001882           JUNCTION     0.28     1.79     8.50     0  02:24        1.79
  YS02001884           JUNCTION     0.37     1.90     8.51     0  02:24        1.90
  YS02001887           JUNCTION     0.45     2.00     8.54     0  02:24        2.00
  YS02001890           JUNCTION     0.48     1.81     8.32     0  02:16        1.81
  YS02001895           JUNCTION     0.25     1.57     8.31     0  02:18        1.56
  YS02001898           JUNCTION     0.26     1.57     8.31     0  02:24        1.57
  YS02001901           JUNCTION     0.37     1.68     8.29     0  02:16        1.67
  YS02001904           JUNCTION     0.35     1.66     8.29     0  02:24        1.66
  YS02001907           JUNCTION     0.68     1.96     8.25     0  02:16        1.96
  YS02001910           JUNCTION     0.47     2.02     8.53     0  02:24        2.02
  YS02001915           JUNCTION     0.28     2.00     8.72     0  02:24        2.00
  YS02001918           JUNCTION     0.15     1.81     8.88     0  02:16        1.60
  YS02001920           JUNCTION     0.22     2.14     9.15     0  02:16        1.65
  YS02001923           JUNCTION     0.11     2.03     9.29     0  02:16        1.42
  YS02001926           JUNCTION     0.15     1.75     9.20     0  02:17        1.25
  YS02001929           JUNCTION     0.08     1.78     9.47     0  02:17        1.03
  YS02006553           JUNCTION     0.68     2.02     8.30     0  02:24        2.02
  YS02006556           JUNCTION     0.65     2.14     8.45     0  02:24        2.14
  YS02006558           JUNCTION     0.70     2.24     8.51     0  02:24        2.24
  YS02006561           JUNCTION     0.13     0.97     7.63     0  02:24        0.90
  YS02163301           JUNCTION     0.44     1.93     8.45     0  02:24        1.93
  YS02163601           JUNCTION     0.54     2.05     8.45     0  02:24        2.05
  YS02164001           JUNCTION     0.48     1.99     8.44     0  02:24        1.99
  CC-1                 OUTFALL      0.00     0.00     0.00     0  00:00        0.00
  CC-2                 OUTFALL      0.00     0.00     0.00     0  00:00        0.00
  JK-1                 OUTFALL      0.00     0.00     0.00     0  00:00        0.00
  JK-2                 OUTFALL      0.00     0.00     0.00     0  00:00        0.00
  WSC                  OUTFALL      0.18     0.30     0.97     0  02:49        0.30
  CC-storage           STORAGE      0.93     1.82     7.32     0  02:46        1.82
  JK-storage           STORAGE      2.85     4.24     5.04     0  02:20        4.23
  
  
  *******************
  Node Inflow Summary
  *******************
  
  -------------------------------------------------------------------------------------------------
                                  Maximum  Maximum                  Lateral       Total        Flow
                                  Lateral    Total  Time of Max      Inflow      Inflow     Balance
                                   Inflow   Inflow   Occurrence      Volume      Volume       Error
  Node                 Type           LPS      LPS  days hr:min    10^6 ltr    10^6 ltr     Percent
  -------------------------------------------------------------------------------------------------
  WS02003060           JUNCTION     16.53   552.67     0  02:47       0.476        5.62       0.042
  WS02003066           JUNCTION      0.00   536.08     0  02:47           0        5.15       0.028
  WS02003067           JUNCTION      0.00   536.04     0  02:47           0        5.15       0.082
  WS02003069           JUNCTION      0.32   553.01     0  02:48     0.00922        5.63       0.072
  WS02003072           JUNCTION      0.00   552.86     0  02:48           0        5.62       0.127
  WS02003073           JUNCTION      1.82   554.55     0  02:49      0.0524        5.67       0.103
  WS02004401           JUNCTION      0.00   538.10     0  02:48           0        5.25       0.199
  WS02004402           JUNCTION      0.00   536.93     0  02:44           0        5.24       0.202
  WS02004403           JUNCTION      0.00   536.91     0  02:45           0        5.23       0.196
  WS02004404           JUNCTION      0.16   536.82     0  02:45     0.00467        5.23       0.175
  WS02004405           JUNCTION      0.04   536.66     0  02:45      0.0011        5.22       0.231
  WS02004406           JUNCTION      0.00   536.86     0  02:45           0        5.21       0.404
  WS02004407           JUNCTION      0.00   536.60     0  02:45           0        5.19       0.024
  WS02004409           JUNCTION      0.00   536.54     0  02:45           0        5.18       0.055
  WS02004410           JUNCTION      0.00   536.45     0  02:46           0        5.18       0.088
  WS02004411           JUNCTION      0.00   536.25     0  02:46           0        5.18       0.112
  WS02004412           JUNCTION      0.00   536.22     0  02:46           0        5.17       0.148
  WS02004413           JUNCTION      0.00   536.10     0  02:46           0        5.16       0.261
  WS02006109           JUNCTION      1.23   557.06     0  02:14      0.0354         5.3       0.097
  WS02006110           JUNCTION      0.00   558.72     0  03:34           0        5.29       0.136
  WS02006111           JUNCTION      0.00   560.56     0  02:27           0        5.28       0.012
  WS02006112           JUNCTION      0.00   542.90     0  03:03           0        5.28       0.337
  WS02006113           JUNCTION      0.00   571.10     0  02:53           0        5.29       0.044
  WS02006115           JUNCTION      0.00   554.04     0  03:00           0        5.27       0.129
  WS02006116           JUNCTION      0.00   541.58     0  03:04           0        5.26       0.115
  WS02006228           JUNCTION      0.00   555.67     0  02:53           0        5.27       0.036
  WS02006229           JUNCTION      0.00   556.66     0  02:53           0        5.27       0.125
  WS02006230           JUNCTION     10.28   593.31     0  02:35       0.296        5.27       0.056
  WS02006231           JUNCTION      0.00   579.06     0  02:46           0        4.98      -0.072
  WS02006232           JUNCTION      0.00   577.95     0  02:46           0        4.99       0.257
  WS02006234           JUNCTION      0.00   573.21     0  02:46           0        4.97      -0.289
  WS02006235           JUNCTION      0.00   564.73     0  02:46           0        5.05       0.269
  WS02006238           JUNCTION      0.00   424.17     0  03:05           0        4.11      -0.202
  WS02006239           JUNCTION      0.00   423.21     0  03:05           0        4.06      -0.146
  WS02006240           JUNCTION      0.00   420.77     0  02:10           0        4.03      -0.043
  WS02006242           JUNCTION      0.00   421.32     0  02:10           0        4.02       0.052
  WS02006243           JUNCTION      0.00   420.69     0  02:10           0           4       0.008
  WS02006245           JUNCTION      0.00   419.68     0  02:10           0        4.01       0.340
  WS02006247           JUNCTION      0.00   419.81     0  02:10           0        4.01       0.030
  WS02006248           JUNCTION      0.00   419.62     0  03:05           0        4.02       0.092
  WS02006249           JUNCTION      0.00   459.02     0  00:00           0        4.24       0.368
  WS02006251           JUNCTION      0.08   406.02     0  02:08     0.00222        4.24      -0.022
  WS02006252           JUNCTION      0.00   400.00     0  00:00           0        4.23      -0.070
  WS02006256           JUNCTION      0.00   300.00     0  00:00           0         1.4      -1.127
  WSF200               JUNCTION      0.00   536.10     0  02:47           0        5.14       0.010
  YS02001580           JUNCTION      0.00    73.05     0  02:10           0     0.00418       2.596
  YS02001583           JUNCTION      0.00   124.71     0  02:10           0      0.0154      -4.746
  YS02001586           JUNCTION    885.47   885.47     0  02:26         1.8        1.81       0.055
  YS02001590           JUNCTION      0.00   318.15     0  02:42           0        1.36      -0.023
  YS02001593           JUNCTION      0.00   318.40     0  02:24           0        1.36       0.004
  YS02001596           JUNCTION      0.00   317.95     0  02:20           0        1.36      -0.009
  YS02001600           JUNCTION      0.00   318.08     0  02:42           0        1.36       0.019
  YS02001601           JUNCTION   1556.60  1874.16     0  02:25        2.48        3.84       0.022
  YS02001602           JUNCTION      0.00   493.08     0  02:10           0        2.31       0.018
  YS02001605           JUNCTION      0.00   492.60     0  02:10           0        2.19       0.024
  YS02001607           JUNCTION      0.00   492.80     0  02:10           0        2.19       0.093
  YS02001610           JUNCTION      0.00   888.92     0  02:26           0         2.5       0.093
  YS02001613           JUNCTION      0.00   552.42     0  02:26           0           2       0.082
  YS02001616           JUNCTION      0.00   552.70     0  02:26           0           2       0.021
  YS02001619           JUNCTION   1579.01  1579.01     0  02:26        2.89        4.58      -0.002
  YS02001622           JUNCTION      0.00  1033.59     0  02:25           0        4.27      -0.001
  YS02001625           JUNCTION      0.00  1467.97     0  02:25           0        4.56       0.212
  YS02001629           JUNCTION      0.00   897.21     0  02:13           0        3.42       0.008
  YS02001633           JUNCTION   1172.84  1265.67     0  02:13        1.82        4.92       0.070
  YS02001641           JUNCTION      0.00  1260.31     0  02:13           0         4.6       0.063
  YS02001644           JUNCTION   1050.62  1686.71     0  02:25        1.57        6.17       0.053
  YS02001647           JUNCTION      0.00  1591.15     0  02:14           0        5.44       0.009
  YS02001649           JUNCTION      0.00  1766.51     0  02:15           0        6.88       0.002
  YS02001652           JUNCTION      0.00  1052.86     0  02:25           0        1.44      -0.077
  YS02001655           JUNCTION      0.15  1052.68     0  02:25     0.00443        1.44       0.022
  YS02001658           JUNCTION      0.00  1052.63     0  02:25           0        1.44      -0.038
  YS02001661           JUNCTION      0.00  1052.86     0  02:25           0        1.44      -0.009
  YS02001664           JUNCTION   1039.26  1039.26     0  02:25        1.44        1.44      -0.008
  YS02001745           JUNCTION    653.11   653.11     0  02:25        0.87        0.87       0.137
  YS02001748           JUNCTION      0.04   657.24     0  02:25      0.0013        0.87      -0.255
  YS02001751           JUNCTION      0.01   657.46     0  02:25    0.000317       0.877       0.097
  YS02001754           JUNCTION      0.26   658.28     0  02:25     0.00749       0.891      -0.149
  YS02001757           JUNCTION      0.00  3018.56     0  02:24           0        10.5       0.008
  YS02001759           JUNCTION    908.75  1303.96     0  02:25         1.2        2.72      -0.012
  YS02001762           JUNCTION      0.00   678.65     0  02:19           0        1.52       0.006
  YS02001765           JUNCTION      0.00   678.02     0  02:19           0        1.52      -0.000
  YS02001767           JUNCTION      0.54   678.76     0  02:19      0.0154        1.52      -0.001
  YS02001770           JUNCTION   1279.44  1279.44     0  02:25        1.83        1.88      -0.023
  YS02001774           JUNCTION      0.00   837.99     0  02:25           0       0.392       0.276
  YS02001779           JUNCTION      0.01   837.36     0  02:25    0.000144       0.347      -0.145
  YS02001783           JUNCTION      0.00  1175.70     0  02:24           0        4.13       0.005
  YS02001784           JUNCTION      1.06  1175.90     0  02:24      0.0305        4.16       0.011
  YS02001786           JUNCTION      0.06  1176.34     0  02:24     0.00162        4.16       0.018
  YS02001788           JUNCTION      0.07  1177.23     0  02:24     0.00204        4.16       0.007
  YS02001790           JUNCTION      0.15  1180.04     0  02:25     0.00446        4.16       0.032
  YS02001791           JUNCTION      0.00  1294.47     0  02:24           0        4.16      -0.037
  YS02001793           JUNCTION      0.00  1255.60     0  02:25           0        4.17       0.005
  YS02001882           JUNCTION      0.00    34.30     0  02:13           0      0.0128       4.459
  YS02001884           JUNCTION      0.00    40.07     0  02:12           0      0.0488       5.140
  YS02001887           JUNCTION    972.37   972.37     0  02:25        1.26        1.29       0.341
  YS02001890           JUNCTION      0.00   972.65     0  02:25           0        1.25       0.406
  YS02001895           JUNCTION      0.00   518.59     0  02:29           0         1.1       0.130
  YS02001898           JUNCTION      0.00   518.51     0  02:29           0         1.1       0.032
  YS02001901           JUNCTION      0.00   518.66     0  02:29           0         1.1       0.288
  YS02001904           JUNCTION      0.00   518.70     0  02:29           0        1.11       0.238
  YS02001907           JUNCTION      0.00  2354.15     0  02:25           0        3.86       0.465
  YS02001910           JUNCTION      0.00  1688.99     0  02:25           0        2.74       0.262
  YS02001915           JUNCTION   1131.01  1688.72     0  02:25        1.74        2.77       0.048
  YS02001918           JUNCTION      0.00   562.05     0  02:25           0        1.05       0.006
  YS02001920           JUNCTION      2.87   561.92     0  02:25      0.0827        1.03       0.081
  YS02001923           JUNCTION      0.04   559.41     0  02:25     0.00109       0.939      -0.049
  YS02001926           JUNCTION      0.05   558.76     0  02:25      0.0015       0.925      -0.018
  YS02001929           JUNCTION    549.34   549.34     0  02:26       0.917       0.918      -0.069
  YS02006553           JUNCTION      0.00   806.46     0  02:39           0        2.37       0.500
  YS02006556           JUNCTION      0.00   807.14     0  02:39           0        2.38       0.338
  YS02006558           JUNCTION   1314.96  1314.96     0  02:25        1.84        4.18       0.081
  YS02006561           JUNCTION      0.00  1173.75     0  02:24           0        4.13      -0.002
  YS02163301           JUNCTION      0.00   900.07     0  02:13           0        3.42       0.043
  YS02163601           JUNCTION      0.11  1265.13     0  02:13     0.00317         4.6       0.108
  YS02164001           JUNCTION      0.00  1263.58     0  02:13           0        4.59       0.049
  CC-1                 OUTFALL       0.00   683.00     0  00:00           0        3.83       0.000
  CC-2                 OUTFALL       0.00   683.00     0  00:00           0        3.28       0.000
  JK-1                 OUTFALL       0.00  1000.00     0  00:00           0        2.76       0.000
  JK-2                 OUTFALL       0.00  1000.00     0  00:00           0       0.125       0.000
  WSC                  OUTFALL       0.00   554.39     0  02:49           0        5.66       0.000
  CC-storage           STORAGE       0.00  3022.99     0  02:24           0        12.7      -0.202
  JK-storage           STORAGE       0.00  1227.04     0  02:25           0        4.32      -0.391
  
  
  **********************
  Node Surcharge Summary
  **********************
  
  Surcharging occurs when water rises above the top of the highest conduit.
  ---------------------------------------------------------------------
                                               Max. Height   Min. Depth
                                   Hours       Above Crown    Below Rim
  Node                 Type      Surcharged         Meters       Meters
  ---------------------------------------------------------------------
  WS02006109           JUNCTION        1.98          0.314        1.506
  WS02006110           JUNCTION        0.63          0.242        1.608
  WS02006112           JUNCTION        0.72          0.082        1.598
  WS02006228           JUNCTION        1.98          0.344        1.856
  WS02006229           JUNCTION        1.99          0.417        2.033
  WS02006230           JUNCTION        0.64          0.343        1.227
  WS02006231           JUNCTION        0.84          0.839        0.691
  WS02006232           JUNCTION        2.03          0.611        0.869
  WS02006234           JUNCTION        1.29          0.769        0.471
  WS02006235           JUNCTION        1.93          0.783        0.507
  WS02006238           JUNCTION        1.98          0.822        0.608
  WS02006239           JUNCTION        1.95          0.803        0.487
  WS02006240           JUNCTION        1.98          0.799        0.591
  WS02006242           JUNCTION        1.99          0.820        0.000
  WS02006243           JUNCTION        1.97          0.709        0.061
  WS02006245           JUNCTION        1.97          0.623        0.227
  WS02006247           JUNCTION        1.97          0.564        0.196
  WS02006248           JUNCTION        1.96          0.380        0.000
  WS02006249           JUNCTION        1.96          0.390        0.000
  WS02006251           JUNCTION        0.94          0.710        0.470
  WS02006252           JUNCTION        2.19          1.100        0.000
  WS02006256           JUNCTION        6.31          2.050        0.000
  YS02001580           JUNCTION        0.64          0.450        0.000
  YS02001583           JUNCTION        0.64          0.345        0.155
  YS02001586           JUNCTION        0.77          0.510        0.000
  YS02001590           JUNCTION        0.85          0.750        0.000
  YS02001593           JUNCTION        0.85          0.714        0.126
  YS02001596           JUNCTION        0.97          0.951        0.119
  YS02001600           JUNCTION        1.12          1.190        0.000
  YS02001601           JUNCTION        1.46          1.440        0.000
  YS02001602           JUNCTION        1.35          1.270        0.000
  YS02001605           JUNCTION        1.30          1.180        0.000
  YS02001607           JUNCTION        0.85          0.680        0.000
  YS02001610           JUNCTION        0.87          0.680        0.000
  YS02001613           JUNCTION        0.84          0.684        0.016
  YS02001616           JUNCTION        0.80          0.610        0.000
  YS02001619           JUNCTION        0.79          0.610        0.000
  YS02001622           JUNCTION        0.78          0.580        0.040
  YS02001625           JUNCTION        0.96          0.780        0.000
  YS02001629           JUNCTION        0.74          0.470        0.000
  YS02001633           JUNCTION        0.99          1.060        0.000
  YS02001641           JUNCTION        0.94          0.949        0.151
  YS02001644           JUNCTION        0.91          0.920        0.000
  YS02001647           JUNCTION        0.71          0.798        0.102
  YS02001649           JUNCTION        0.84          1.033        0.017
  YS02001652           JUNCTION        0.66          1.062        0.068
  YS02001655           JUNCTION        0.51          0.832        0.368
  YS02001658           JUNCTION        0.30          0.576        0.724
  YS02001661           JUNCTION        0.08          0.204        1.186
  YS02001748           JUNCTION        0.23          0.295        0.895
  YS02001751           JUNCTION        0.40          0.540        0.660
  YS02001754           JUNCTION        0.59          0.770        0.380
  YS02001757           JUNCTION        0.91          1.133        0.077
  YS02001759           JUNCTION        0.82          1.210        0.000
  YS02001762           JUNCTION        0.80          1.150        0.000
  YS02001765           JUNCTION        0.75          1.055        0.045
  YS02001767           JUNCTION        0.73          0.984        0.046
  YS02001770           JUNCTION        0.70          0.920        0.000
  YS02001774           JUNCTION        0.78          1.020        0.030
  YS02001779           JUNCTION        0.57          0.680        0.000
  YS02001783           JUNCTION        0.55          0.477        1.123
  YS02001784           JUNCTION        0.53          0.344        1.146
  YS02001786           JUNCTION        0.42          0.099        1.331
  YS02001882           JUNCTION        0.50          0.789        0.041
  YS02001884           JUNCTION        0.51          0.836        0.034
  YS02001887           JUNCTION        0.54          0.950        0.000
  YS02001890           JUNCTION        0.56          0.760        0.000
  YS02001895           JUNCTION        0.49          0.567        0.183
  YS02001898           JUNCTION        0.48          0.543        0.197
  YS02001901           JUNCTION        0.53          0.683        0.187
  YS02001904           JUNCTION        0.52          0.658        0.192
  YS02001907           JUNCTION        0.81          0.950        0.000
  YS02001910           JUNCTION        0.59          1.024        0.076
  YS02001915           JUNCTION        0.50          1.000        0.000
  YS02001918           JUNCTION        0.41          0.810        0.000
  YS02001920           JUNCTION        0.42          1.140        0.000
  YS02001923           JUNCTION        0.13          0.820        0.000
  YS02001926           JUNCTION        0.18          0.752        0.148
  YS02001929           JUNCTION        0.01          0.780        0.000
  YS02006553           JUNCTION        0.82          1.021        0.169
  YS02006556           JUNCTION        0.69          1.102        0.248
  YS02006558           JUNCTION        0.67          1.141        0.259
  YS02006561           JUNCTION        0.38          0.166        0.984
  YS02163301           JUNCTION        0.97          0.930        0.100
  YS02163601           JUNCTION        1.02          1.051        0.029
  YS02164001           JUNCTION        0.94          0.985        0.115
  
  
  *********************
  Node Flooding Summary
  *********************
  
  Flooding refers to all water that overflows a node, whether it ponds or not.
  --------------------------------------------------------------------------
                                                             Total   Maximum
                                 Maximum   Time of Max       Flood    Ponded
                        Hours       Rate    Occurrence      Volume     Depth
  Node                 Flooded       LPS   days hr:min    10^6 ltr    Meters
  --------------------------------------------------------------------------
  WS02006242              0.01      2.44      0  02:13       0.000     0.000
  WS02006248              0.02     21.01      0  02:20       0.001     0.000
  WS02006249              0.89    106.78      0  02:08       0.207     0.000
  WS02006252              0.01    245.63      0  00:00       0.000     0.000
  WS02006256              1.29    293.19      0  00:00       0.433     0.000
  YS02001580              0.01     39.98      0  02:10       0.000     0.000
  YS02001586              0.51    567.80      0  02:26       0.444     0.000
  YS02001590              0.01      8.72      0  02:10       0.000     0.000
  YS02001600              0.01      2.88      0  02:10       0.000     0.000
  YS02001601              0.70   1476.22      0  02:25       1.526     0.000
  YS02001602              0.60     61.96      0  02:20       0.124     0.000
  YS02001605              0.01      0.29      0  02:29       0.000     0.000
  YS02001607              0.01      0.42      0  02:24       0.000     0.000
  YS02001610              0.54    888.86      0  02:26       0.801     0.000
  YS02001616              0.01      0.66      0  02:24       0.000     0.000
  YS02001619              0.01      3.69      0  02:24       0.000     0.000
  YS02001625              0.51   1467.91      0  02:26       1.453     0.000
  YS02001629              0.15    134.75      0  02:25       0.027     0.000
  YS02001633              0.01      1.90      0  02:24       0.000     0.000
  YS02001644              0.26   1686.32      0  02:25       0.718     0.000
  YS02001759              0.01      2.12      0  02:24       0.000     0.000
  YS02001762              0.01      0.58      0  02:24       0.000     0.000
  YS02001770              0.04     64.40      0  02:25       0.004     0.000
  YS02001779              0.22    837.10      0  02:25       0.328     0.000
  YS02001887              0.01      1.01      0  02:24       0.000     0.000
  YS02001890              0.20    456.01      0  02:25       0.141     0.000
  YS02001907              0.36   2353.91      0  02:25       1.499     0.000
  YS02001915              0.01      2.03      0  02:24       0.000     0.000
  YS02001918              0.01     49.31      0  02:17       0.000     0.000
  YS02001920              0.01      9.80      0  02:16       0.000     0.000
  YS02001923              0.01    139.64      0  02:16       0.000     0.000
  YS02001929              0.01    214.89      0  02:17       0.000     0.000
  
  
  **********************
  Storage Volume Summary
  **********************
  
  ------------------------------------------------------------------------------------------------
                         Average    Avg   Evap  Exfil     Maximum    Max    Time of Max    Maximum
                          Volume   Pcnt   Pcnt   Pcnt      Volume   Pcnt     Occurrence    Outflow
  Storage Unit           1000 m³   Full   Loss   Loss     1000 m³   Full    days hr:min        LPS
  ------------------------------------------------------------------------------------------------
  CC-storage               2.602   40.6    0.0    0.0       5.084   79.3       0  02:46    1783.53
  JK-storage               0.143   49.1    0.0    0.0       0.213   73.1       0  02:20    2300.00
  
  
  ***********************
  Outfall Loading Summary
  ***********************
  
  -----------------------------------------------------------
                         Flow       Avg       Max       Total
                         Freq      Flow      Flow      Volume
  Outfall Node           Pcnt       LPS       LPS    10^6 ltr
  -----------------------------------------------------------
  CC-1                  18.19    683.00    683.00       3.831
  CC-2                  14.73    683.00    683.00       3.279
  JK-1                  10.54   1000.00   1000.00       2.762
  JK-2                   0.22   1000.00   1000.00       0.125
  WSC                   99.96    244.11    554.39       5.662
  -----------------------------------------------------------
  System                28.73   3610.11   3449.52      15.658
  
  
  ********************
  Link Flow Summary
  ********************
  
  -----------------------------------------------------------------------------
                                 Maximum  Time of Max   Maximum    Max/    Max/
                                  |Flow|   Occurrence   |Veloc|    Full    Full
  Link                 Type          LPS  days hr:min     m/sec    Flow   Depth
  -----------------------------------------------------------------------------
  1                    CONDUIT    554.39     0  02:49      2.83    0.19    0.30
  WS02003060WS02003069 CONDUIT    552.69     0  02:48      1.64    0.22    0.34
  WS02003066WSF200     CONDUIT    536.10     0  02:47      2.85    0.09    0.22
  WS02003067WS02003066 CONDUIT    536.08     0  02:47      1.21    0.17    0.42
  WS02003069WS02003072 CONDUIT    552.86     0  02:48      1.37    0.27    0.39
  WS02003072WS02003073 CONDUIT    552.73     0  02:49      1.43    1.19    0.37
  WS02004401WS02004402 CONDUIT    536.93     0  02:44      0.98    0.64    0.86
  WS02004402WS02004403 CONDUIT    536.91     0  02:45      0.97    0.77    0.88
  WS02004403WS02004404 CONDUIT    536.65     0  02:45      0.92    0.39    0.93
  WS02004404WS02004405 CONDUIT    536.63     0  02:45      1.08    5.26    0.96
  WS02004405WS02004406 CONDUIT    536.86     0  02:45      0.99    1.06    0.96
  WS02004406WS02004407 CONDUIT    536.60     0  02:45      1.04    0.24    0.63
  WS02004407WS02004409 CONDUIT    536.54     0  02:45      1.50    0.19    0.48
  WS02004409WS02004410 CONDUIT    536.45     0  02:46      0.98    0.69    0.67
  WS02004410WS02004411 CONDUIT    536.25     0  02:46      0.94    0.73    0.69
  WS02004411WS02004412 CONDUIT    536.22     0  02:46      0.92    0.76    0.69
  WS02004412WS02004413 CONDUIT    536.10     0  02:46      0.82    0.36    0.78
  WS02004413WS02003067 CONDUIT    536.04     0  02:47      1.11    0.23    0.59
  WS02006109WS02006110 CONDUIT    558.72     0  03:34      1.11    1.07    1.00
  WS02006110WS02006113 CONDUIT    571.10     0  02:53      1.38    0.52    0.79
  WS02006111WS02006112 CONDUIT    542.90     0  03:03      1.81    0.26    0.67
  WS02006112WS02006115 CONDUIT    554.04     0  03:00      0.80    0.33    0.87
  WS02006113WS02006111 CONDUIT    560.56     0  02:27      2.47    0.67    0.46
  WS02006115WS02006116 CONDUIT    541.58     0  03:04      0.97    0.70    0.76
  WS02006116WS02004401 CONDUIT    538.10     0  02:48      0.98    0.74    0.84
  WS02006228WS02006109 CONDUIT    555.83     0  02:14      1.11    2.43    1.00
  WS02006229WS02006228 CONDUIT    555.67     0  02:53      1.14    1.84    1.00
  WS02006230WS02006229 CONDUIT    556.66     0  02:53      1.45   12.39    1.00
  WS02006231WS02006230 CONDUIT    583.03     0  02:35      1.58    8.84    1.00
  WS02006232WS02006231 CONDUIT    579.06     0  02:46      1.51    1.21    1.00
  WS02006234WS02006232 CONDUIT    577.95     0  02:46      1.50    1.17    1.00
  WS02006235WS02006234 CONDUIT    573.21     0  02:46      1.49    6.05    1.00
  WS02006238WS02006235 CONDUIT    424.66     0  03:05      1.51    0.95    1.00
  WS02006239WS02006238 CONDUIT    424.17     0  03:05      1.19    1.36    1.00
  WS02006240WS02006239 CONDUIT    423.21     0  03:05      1.31    1.33    1.00
  WS02006242WS02006240 CONDUIT    420.77     0  02:10      1.16    1.67    1.00
  WS02006243WS02006242 CONDUIT    421.32     0  02:10      1.42    0.90    1.00
  WS02006245WS02006243 CONDUIT    420.69     0  02:10      1.45    1.24    1.00
  WS02006247WS02006245 CONDUIT    419.68     0  02:10      1.43    3.33    1.00
  WS02006248WS02006247 CONDUIT    419.81     0  02:10      1.45    0.91    1.00
  WS02006249WS02006248 CONDUIT    419.62     0  03:05      1.39    2.30    1.00
  WS02006251WS02006249 CONDUIT    459.02     0  00:00      1.99    1.32    1.00
  WS02006252WS02006251 CONDUIT    405.94     0  02:08     24.61    1.49    1.00
  WS02006256WS02006235 CONDUIT    288.91     0  00:00      4.23    3.06    1.00
  WSF200WS02003060     CONDUIT    536.14     0  02:47      2.06    0.12    0.28
  YS02001580YS02001583 CONDUIT     73.05     0  02:10      0.52    0.28    1.00
  YS02001583YS02001586 CONDUIT    124.71     0  02:10      0.52    0.19    1.00
  YS02001586YS02001590 CONDUIT    318.15     0  02:42      1.24    0.56    1.00
  YS02001590YS02001593 CONDUIT    318.40     0  02:24      1.13    2.00    1.00
  YS02001593YS02001596 CONDUIT    317.95     0  02:20      1.73    0.50    1.00
  YS02001596YS02001600 CONDUIT    318.08     0  02:42      1.27    0.62    1.00
  YS02001600YS02001601 CONDUIT    318.15     0  02:42      1.13    0.55    1.00
  YS02001601YS02001602 CONDUIT    493.08     0  02:10      1.74    1.78    1.00
  YS02001602YS02001605 CONDUIT    492.60     0  02:10      1.74   10.42    1.00
  YS02001605YS02001607 CONDUIT    492.80     0  02:10      1.74    2.70    1.00
  YS02001607YS02001610 CONDUIT    494.01     0  02:10      0.63    0.47    1.00
  YS02001610YS02001613 CONDUIT    553.08     0  02:26      0.70    0.64    1.00
  YS02001613YS02001616 CONDUIT    552.42     0  02:26      0.70    0.47    1.00
  YS02001616YS02001619 CONDUIT    552.70     0  02:26      0.70    0.96    1.00
  YS02001619YS02001622 CONDUIT   1033.59     0  02:25      1.32    1.52    1.00
  YS02001622YS02001625 CONDUIT   1033.72     0  02:25      1.32    0.55    1.00
  YS02001625YS02001629 CONDUIT    897.21     0  02:13      1.15    0.43    1.00
  YS02001629YS02163301 CONDUIT    900.07     0  02:13      1.15    1.11    1.00
  YS02001633YS02163601 CONDUIT   1265.02     0  02:13      1.61    1.33    1.00
  YS02001641YS02001644 CONDUIT   1259.96     0  02:13      1.60    4.07    1.00
  YS02001644YS02001647 CONDUIT   1591.15     0  02:14      2.07    0.93    1.00
  YS02001647YS02001649 CONDUIT   1593.65     0  02:13      2.22    0.84    1.00
  YS02001649YS02001757 CONDUIT   1767.95     0  02:15      2.26    1.07    1.00
  YS02001652YS02001649 CONDUIT   1053.52     0  02:25      1.34    0.52    1.00
  YS02001655YS02001652 CONDUIT   1052.86     0  02:25      1.34    0.51    1.00
  YS02001658YS02001655 CONDUIT   1052.52     0  02:25      1.81    0.45    1.00
  YS02001661YS02001658 CONDUIT   1052.63     0  02:25      2.13    0.41    1.00
  YS02001664YS02001661 CONDUIT   1052.86     0  02:25      2.04    0.33    0.85
  YS02001745YS02001748 CONDUIT    657.19     0  02:25      1.98    0.25    0.96
  YS02001748YS02001751 CONDUIT    657.45     0  02:25      1.57    0.33    1.00
  YS02001751YS02001754 CONDUIT    658.02     0  02:25      1.40    0.32    1.00
  YS02001754YS02001757 CONDUIT    657.74     0  02:25      0.84    0.26    1.00
  YS02001757CaochengTiaoxuchi CONDUIT   3022.99     0  02:24      3.85    1.31    1.00
  YS02001759YS02001757 CONDUIT   1304.42     0  02:25      1.66    0.93    1.00
  YS02001762YS02001759 CONDUIT    678.39     0  02:19      0.86    0.78    1.00
  YS02001765YS02001762 CONDUIT    678.65     0  02:19      0.86    0.64    1.00
  YS02001767YS02001765 CONDUIT    678.02     0  02:19      0.86    0.85    1.00
  YS02001770YS02001767 CONDUIT    678.22     0  02:19      0.86    2.69    1.00
  YS02001774YS02001770 CONDUIT    837.99     0  02:25      1.07    0.54    1.00
  YS02001779YS02001774 CONDUIT    837.35     0  02:25      1.07    0.42    1.00
  YS02001783YS02001784 CONDUIT   1174.84     0  02:24      2.34    1.62    1.00
  YS02001784YS02001785 CONDUIT   1176.29     0  02:24      2.34    2.74    1.00
  YS02001786YS02001788 CONDUIT   1177.15     0  02:24      2.50    2.27    0.89
  YS02001788YS02001790 CONDUIT   1179.88     0  02:25      2.73    0.87    0.84
  YS02001790YS02001791 CONDUIT   1294.47     0  02:24      3.44    1.41    0.71
  YS02001791YS02001793 CONDUIT   1255.60     0  02:25      6.46    0.54    0.45
  YS02001793JiankangQianchi CONDUIT   1227.04     0  02:25      2.34    0.10    0.65
  YS02001882YS02001884 CONDUIT     34.30     0  02:13      0.12    0.04    1.00
  YS02001884YS02001887 CONDUIT     40.07     0  02:12      0.09    0.05    1.00
  YS02001887YS02001890 CONDUIT    972.65     0  02:25      1.24    1.66    1.00
  YS02001890YS02001895 CONDUIT    518.59     0  02:29      0.66    0.24    1.00
  YS02001895YS02001898 CONDUIT    518.51     0  02:29      0.66    0.90    1.00
  YS02001898YS02001901 CONDUIT    518.66     0  02:29      0.66    0.33    1.00
  YS02001901YS02001904 CONDUIT    518.70     0  02:29      0.66    0.80    1.00
  YS02001904YS02001907 CONDUIT    518.77     0  02:29      0.66    0.18    1.00
  YS02001907YS02006553 CONDUIT    806.46     0  02:39      0.90    0.95    1.00
  YS02001910YS02001907 CONDUIT   1688.87     0  02:25      2.15    0.95    1.00
  YS02001915YS02001910 CONDUIT   1688.99     0  02:25      2.15    0.84    1.00
  YS02001918YS02001915 CONDUIT    561.89     0  02:25      0.72    0.31    1.00
  YS02001920YS02001918 CONDUIT    562.05     0  02:25      0.72    0.54    1.00
  YS02001923YS02001920 CONDUIT    559.05     0  02:25      0.71    0.25    1.00
  YS02001926YS02001923 CONDUIT    559.37     0  02:25      0.94    0.80    1.00
  YS02001929YS02001926 CONDUIT    558.70     0  02:25      1.08    0.27    1.00
  YS02006553YS02006556 CONDUIT    807.14     0  02:39      1.03    0.69    1.00
  YS02006556YS02006558 CONDUIT    808.93     0  02:39      1.03    0.64    1.00
  YS02006558YS02006561 CONDUIT   1173.75     0  02:24      4.15    2.59    1.00
  YS02006561YS02001783 CONDUIT   1175.70     0  02:24      2.34    0.61    1.00
  YS02163301YS02001633 CONDUIT    899.58     0  02:13      1.15    0.85    1.00
  YS02163601YS02164001 CONDUIT   1263.58     0  02:13      1.61    1.12    1.00
  YS02164001YS02001641 CONDUIT   1260.31     0  02:13      1.60    1.72    1.00
  CC-R1                PUMP       683.00     0  00:00              1.00
  CC-R2                PUMP       683.00     0  00:00              1.00
  CC-S1                PUMP       200.00     0  00:00              1.00
  CC-S2                PUMP       200.00     0  00:00              1.00
  JK-R1                PUMP      1000.00     0  00:00              1.00
  JK-R2                PUMP      1000.00     0  00:00              1.00
  JK-S                 PUMP       300.00     0  00:00              1.00
  
  
  ***************************
  Flow Classification Summary
  ***************************
  
  -------------------------------------------------------------------------------------
                      Adjusted    ---------- Fraction of Time in Flow Class ---------- 
                       /Actual         Up    Down  Sub   Sup   Up    Down  Norm  Inlet 
  Conduit               Length    Dry  Dry   Dry   Crit  Crit  Crit  Crit  Ltd   Ctrl  
  -------------------------------------------------------------------------------------
  1                       1.00   0.00  0.00  0.00  0.00  1.00  0.00  0.00  0.41  0.00
  WS02003060WS02003069    1.00   0.00  0.00  0.00  0.97  0.03  0.00  0.00  0.67  0.00
  WS02003066WSF200        1.00   0.13  0.00  0.00  0.00  0.87  0.00  0.00  0.76  0.00
  WS02003067WS02003066    1.00   0.10  0.02  0.00  0.88  0.00  0.00  0.00  0.00  0.00
  WS02003069WS02003072    1.00   0.00  0.00  0.00  0.99  0.01  0.00  0.00  0.73  0.00
  WS02003072WS02003073    1.00   0.00  0.00  0.00  0.00  0.00  0.00  1.00  0.00  0.00
  WS02004401WS02004402    1.00   0.02  0.00  0.00  0.98  0.00  0.00  0.00  0.00  0.00
  WS02004402WS02004403    1.00   0.02  0.00  0.00  0.97  0.00  0.00  0.00  0.00  0.00
  WS02004403WS02004404    1.00   0.00  0.03  0.00  0.97  0.00  0.00  0.00  0.00  0.00
  WS02004404WS02004405    1.00   0.00  0.00  0.00  1.00  0.00  0.00  0.00  0.01  0.00
  WS02004405WS02004406    1.00   0.00  0.00  0.00  1.00  0.00  0.00  0.00  0.00  0.00
  WS02004406WS02004407    1.00   0.00  0.05  0.00  0.95  0.00  0.00  0.00  0.00  0.00
  WS02004407WS02004409    1.00   0.05  0.00  0.00  0.94  0.01  0.00  0.00  0.94  0.00
  WS02004409WS02004410    1.00   0.05  0.00  0.00  0.95  0.00  0.00  0.00  0.03  0.00
  WS02004410WS02004411    1.00   0.05  0.00  0.00  0.95  0.00  0.00  0.00  0.01  0.00
  WS02004411WS02004412    1.00   0.05  0.00  0.00  0.95  0.00  0.00  0.00  0.00  0.00
  WS02004412WS02004413    1.00   0.05  0.00  0.00  0.94  0.00  0.00  0.00  0.01  0.00
  WS02004413WS02003067    1.00   0.06  0.04  0.00  0.00  0.00  0.90  0.00  0.00  0.00
  WS02006109WS02006110    1.00   0.00  0.01  0.00  0.98  0.00  0.01  0.00  0.00  0.00
  WS02006110WS02006113    1.00   0.01  0.01  0.00  0.98  0.00  0.00  0.00  0.00  0.00
  WS02006111WS02006112    1.00   0.02  0.00  0.00  0.98  0.00  0.00  0.00  0.98  0.00
  WS02006112WS02006115    1.00   0.02  0.00  0.00  0.97  0.00  0.00  0.00  0.00  0.00
  WS02006113WS02006111    1.00   0.02  0.00  0.00  0.00  0.98  0.00  0.00  0.17  0.00
  WS02006115WS02006116    1.00   0.02  0.00  0.00  0.97  0.00  0.00  0.01  0.00  0.00
  WS02006116WS02004401    1.00   0.02  0.00  0.00  0.98  0.00  0.00  0.00  0.00  0.00
  WS02006228WS02006109    1.00   0.00  0.00  0.00  1.00  0.00  0.00  0.00  0.00  0.00
  WS02006229WS02006228    1.00   0.00  0.00  0.00  0.99  0.00  0.00  0.01  0.00  0.00
  WS02006230WS02006229    1.00   0.00  0.00  0.00  0.99  0.00  0.00  0.01  0.00  0.00
  WS02006231WS02006230    1.00   0.00  0.00  0.00  0.27  0.00  0.73  0.00  0.00  0.00
  WS02006232WS02006231    1.00   0.00  0.00  0.00  0.98  0.00  0.01  0.00  0.00  0.00
  WS02006234WS02006232    1.00   0.00  0.00  0.00  1.00  0.00  0.00  0.00  0.06  0.00
  WS02006235WS02006234    1.00   0.00  0.00  0.00  0.89  0.00  0.11  0.00  0.00  0.00
  WS02006238WS02006235    1.00   0.00  0.00  0.00  1.00  0.00  0.00  0.00  0.00  0.00
  WS02006239WS02006238    1.00   0.00  0.00  0.00  1.00  0.00  0.00  0.00  0.21  0.00
  WS02006240WS02006239    1.00   0.00  0.00  0.00  0.70  0.00  0.00  0.30  0.04  0.00
  WS02006242WS02006240    1.00   0.00  0.00  0.00  0.99  0.00  0.01  0.00  0.00  0.00
  WS02006243WS02006242    1.00   0.00  0.00  0.00  0.99  0.00  0.00  0.01  0.47  0.00
  WS02006245WS02006243    1.00   0.00  0.00  0.00  0.77  0.00  0.00  0.23  0.01  0.00
  WS02006247WS02006245    1.00   0.00  0.00  0.00  0.97  0.00  0.00  0.02  0.00  0.00
  WS02006248WS02006247    1.00   0.00  0.00  0.00  0.98  0.00  0.00  0.02  0.32  0.00
  WS02006249WS02006248    1.00   0.00  0.00  0.00  0.52  0.00  0.48  0.00  0.00  0.00
  WS02006251WS02006249    1.00   0.00  0.00  0.00  0.99  0.01  0.00  0.00  0.50  0.00
  WS02006252WS02006251    1.00   0.00  0.52  0.00  0.12  0.00  0.37  0.00  0.00  0.00
  WS02006256WS02006235    1.00   0.00  0.00  0.00  0.99  0.01  0.00  0.00  0.00  0.00
  WSF200WS02003060        1.00   0.00  0.13  0.00  0.21  0.66  0.00  0.00  0.47  0.00
  YS02001580YS02001583    1.00   0.27  0.54  0.00  0.20  0.00  0.00  0.00  0.63  0.00
  YS02001583YS02001586    1.00   0.41  0.34  0.00  0.25  0.00  0.00  0.00  0.63  0.00
  YS02001586YS02001590    1.00   0.13  0.00  0.00  0.45  0.04  0.00  0.38  0.38  0.00
  YS02001590YS02001593    1.00   0.13  0.01  0.00  0.12  0.00  0.74  0.00  0.00  0.00
  YS02001593YS02001596    1.00   0.13  0.00  0.00  0.14  0.01  0.00  0.72  0.02  0.00
  YS02001596YS02001600    1.00   0.14  0.00  0.00  0.21  0.01  0.00  0.64  0.05  0.00
  YS02001600YS02001601    1.00   0.13  0.01  0.00  0.86  0.00  0.00  0.00  0.59  0.00
  YS02001601YS02001602    1.00   0.13  0.01  0.00  0.87  0.00  0.00  0.00  0.00  0.00
  YS02001602YS02001605    1.00   0.13  0.00  0.00  0.86  0.00  0.00  0.00  0.00  0.00
  YS02001605YS02001607    1.00   0.14  0.00  0.00  0.86  0.00  0.00  0.00  0.00  0.00
  YS02001607YS02001610    1.00   0.13  0.01  0.00  0.86  0.00  0.00  0.00  0.01  0.00
  YS02001610YS02001613    1.00   0.13  0.00  0.00  0.87  0.00  0.00  0.00  0.00  0.00
  YS02001613YS02001616    1.00   0.13  0.00  0.00  0.87  0.00  0.00  0.00  0.00  0.00
  YS02001616YS02001619    1.00   0.13  0.00  0.00  0.87  0.00  0.00  0.00  0.00  0.00
  YS02001619YS02001622    1.00   0.13  0.00  0.00  0.87  0.00  0.00  0.00  0.27  0.00
  YS02001622YS02001625    1.00   0.13  0.00  0.00  0.87  0.00  0.00  0.00  0.04  0.00
  YS02001625YS02001629    1.00   0.13  0.05  0.00  0.17  0.00  0.65  0.00  0.00  0.00
  YS02001629YS02163301    1.00   0.15  0.01  0.00  0.84  0.00  0.00  0.00  0.00  0.00
  YS02001633YS02163601    1.00   0.00  0.01  0.00  0.99  0.00  0.00  0.00  0.15  0.00
  YS02001641YS02001644    1.00   0.00  0.01  0.00  0.99  0.00  0.00  0.00  0.00  0.00
  YS02001644YS02001647    1.00   0.00  0.17  0.00  0.83  0.00  0.00  0.00  0.00  0.00
  YS02001647YS02001649    1.00   0.00  0.17  0.00  0.54  0.29  0.00  0.00  0.56  0.00
  YS02001649YS02001757    1.00   0.00  0.00  0.00  0.84  0.16  0.00  0.00  0.41  0.00
  YS02001652YS02001649    1.00   0.00  0.00  0.00  0.96  0.03  0.00  0.00  0.73  0.00
  YS02001655YS02001652    1.00   0.00  0.00  0.00  0.20  0.01  0.00  0.78  0.06  0.00
  YS02001658YS02001655    1.00   0.00  0.14  0.00  0.67  0.19  0.00  0.00  0.68  0.00
  YS02001661YS02001658    1.00   0.14  0.00  0.00  0.51  0.35  0.00  0.00  0.69  0.00
  YS02001664YS02001661    1.00   0.13  0.00  0.00  0.79  0.09  0.00  0.00  0.85  0.00
  YS02001745YS02001748    1.00   0.00  0.00  0.00  0.11  0.00  0.00  0.89  0.04  0.00
  YS02001748YS02001751    1.00   0.00  0.00  0.00  0.83  0.17  0.00  0.00  0.73  0.00
  YS02001751YS02001754    1.00   0.00  0.00  0.00  0.18  0.00  0.00  0.82  0.04  0.00
  YS02001754YS02001757    1.00   0.00  0.00  0.00  1.00  0.00  0.00  0.00  0.80  0.00
  YS02001757CaochengTiaoxuchi    1.00   0.00  0.00  0.00  1.00  0.00  0.00  0.00  0.65  0.00
  YS02001759YS02001757    1.00   0.00  0.00  0.00  1.00  0.00  0.00  0.00  0.49  0.00
  YS02001762YS02001759    1.00   0.00  0.00  0.00  1.00  0.00  0.00  0.00  0.05  0.00
  YS02001765YS02001762    1.00   0.00  0.00  0.00  1.00  0.00  0.00  0.00  0.64  0.00
  YS02001767YS02001765    1.00   0.00  0.00  0.00  1.00  0.00  0.00  0.00  0.01  0.00
  YS02001770YS02001767    1.00   0.00  0.00  0.00  1.00  0.00  0.00  0.00  0.00  0.00
  YS02001774YS02001770    1.00   0.00  0.13  0.00  0.71  0.00  0.16  0.00  0.03  0.00
  YS02001779YS02001774    1.00   0.00  0.00  0.00  1.00  0.00  0.00  0.00  0.74  0.00
  YS02001783YS02001784    1.00   0.00  0.18  0.00  0.82  0.00  0.00  0.00  0.55  0.00
  YS02001784YS02001785    1.00   0.00  0.00  0.00  1.00  0.00  0.00  0.00  0.17  0.00
  YS02001786YS02001788    1.00   0.00  0.00  0.00  0.79  0.21  0.00  0.00  0.00  0.00
  YS02001788YS02001790    1.00   0.00  0.00  0.00  0.21  0.79  0.00  0.00  0.80  0.00
  YS02001790YS02001791    1.00   0.00  0.00  0.00  0.01  0.99  0.00  0.00  0.16  0.00
  YS02001791YS02001793    1.00   0.00  0.00  0.00  0.00  1.00  0.00  0.00  0.01  0.00
  YS02001793JiankangQianchi    1.00   0.00  0.00  0.00  0.99  0.01  0.00  0.00  0.94  0.00
  YS02001882YS02001884    1.00   0.15  0.01  0.00  0.84  0.00  0.00  0.00  0.00  0.00
  YS02001884YS02001887    1.00   0.06  0.05  0.00  0.89  0.00  0.00  0.00  0.00  0.00
  YS02001887YS02001890    1.00   0.00  0.00  0.00  0.97  0.00  0.03  0.00  0.00  0.00
  YS02001890YS02001895    1.00   0.00  0.16  0.00  0.84  0.00  0.00  0.00  0.00  0.00
  YS02001895YS02001898    1.00   0.16  0.00  0.00  0.82  0.00  0.02  0.00  0.00  0.00
  YS02001898YS02001901    1.00   0.17  0.00  0.00  0.83  0.00  0.00  0.00  0.01  0.00
  YS02001901YS02001904    1.00   0.17  0.00  0.00  0.83  0.00  0.00  0.00  0.00  0.00
  YS02001904YS02001907    1.00   0.00  0.16  0.00  0.83  0.00  0.00  0.00  0.00  0.00
  YS02001907YS02006553    1.00   0.00  0.02  0.00  0.98  0.00  0.00  0.00  0.00  0.00
  YS02001910YS02001907    1.00   0.00  0.00  0.00  0.97  0.00  0.00  0.03  0.12  0.00
  YS02001915YS02001910    1.00   0.00  0.00  0.00  0.97  0.03  0.00  0.00  0.16  0.00
  YS02001918YS02001915    1.00   0.00  0.01  0.00  0.98  0.02  0.00  0.00  0.74  0.00
  YS02001920YS02001918    1.00   0.00  0.01  0.00  0.99  0.00  0.00  0.00  0.00  0.00
  YS02001923YS02001920    1.00   0.00  0.00  0.00  1.00  0.00  0.00  0.00  0.92  0.00
  YS02001926YS02001923    1.00   0.00  0.07  0.00  0.06  0.00  0.86  0.00  0.00  0.00
  YS02001929YS02001926    1.00   0.00  0.13  0.00  0.87  0.00  0.00  0.00  0.82  0.00
  YS02006553YS02006556    1.00   0.01  0.00  0.00  0.99  0.00  0.00  0.00  0.03  0.00
  YS02006556YS02006558    1.00   0.00  0.00  0.00  1.00  0.00  0.00  0.00  0.00  0.00
  YS02006558YS02006561    1.00   0.18  0.00  0.00  0.06  0.76  0.00  0.00  0.18  0.00
  YS02006561YS02001783    1.00   0.18  0.00  0.00  0.09  0.73  0.00  0.00  0.68  0.00
  YS02163301YS02001633    1.00   0.00  0.15  0.00  0.85  0.00  0.00  0.00  0.00  0.00
  YS02163601YS02164001    1.00   0.00  0.08  0.00  0.92  0.00  0.00  0.00  0.00  0.00
  YS02164001YS02001641    1.00   0.01  0.07  0.00  0.92  0.00  0.00  0.00  0.05  0.00
  
  
  *************************
  Conduit Surcharge Summary
  *************************
  
  ----------------------------------------------------------------------------
                                                           Hours        Hours 
                         --------- Hours Full --------   Above Full   Capacity
  Conduit                Both Ends  Upstream  Dnstream   Normal Flow   Limited
  ----------------------------------------------------------------------------
  WS02003072WS02003073        0.01      0.01      0.01      1.22         0.01
  WS02004404WS02004405        0.01      0.01      0.01      3.87         0.01
  WS02004405WS02004406        0.01      0.01      0.01      0.67         0.01
  WS02006109WS02006110        0.62      0.62      2.02      0.79         0.01
  WS02006110WS02006113        0.01      0.01      2.00      0.01         0.01
  WS02006111WS02006112        0.01      0.01      2.23      0.01         0.01
  WS02006112WS02006115        0.01      0.01      0.71      0.01         0.01
  WS02006228WS02006109        1.98      2.01      1.98      2.46         1.98
  WS02006229WS02006228        1.98      1.99      1.98      2.20         1.97
  WS02006230WS02006229        2.07      2.18      2.07      4.51         2.07
  WS02006231WS02006230        0.64      0.64      0.91      4.12         0.01
  WS02006232WS02006231        0.83      0.83      2.03      0.92         0.01
  WS02006234WS02006232        1.91      1.91      2.03      0.90         0.88
  WS02006235WS02006234        1.28      1.29      1.92      3.87         0.03
  WS02006238WS02006235        1.94      1.94      2.03      0.01         0.01
  WS02006239WS02006238        1.98      2.00      1.98      2.03         1.75
  WS02006240WS02006239        1.95      1.98      1.95      2.04         1.63
  WS02006242WS02006240        1.98      1.98      2.01      2.17         0.01
  WS02006243WS02006242        1.98      1.98      1.99      0.01         0.07
  WS02006245WS02006243        1.97      1.97      1.97      1.38         1.35
  WS02006247WS02006245        1.97      1.97      1.97      3.62         1.95
  WS02006248WS02006247        1.96      1.96      1.97      0.01         0.08
  WS02006249WS02006248        1.96      1.96      1.96      3.58         0.01
  WS02006251WS02006249        1.96      1.96      1.96      2.13         1.86
  WS02006252WS02006251        2.18      2.18      2.19      2.19         0.01
  WS02006256WS02006235        3.95      4.00      6.25      1.31         0.01
  YS02001580YS02001583        0.64      0.64      0.69      0.01         0.01
  YS02001583YS02001586        0.64      0.64      0.77      0.01         0.01
  YS02001586YS02001590        0.78      0.78      0.85      0.01         0.01
  YS02001590YS02001593        0.85      0.85      0.87      0.86         0.01
  YS02001593YS02001596        0.87      0.87      0.97      0.01         0.01
  YS02001596YS02001600        1.02      1.02      1.12      0.01         0.01
  YS02001600YS02001601        1.17      1.17      1.46      0.01         0.01
  YS02001601YS02001602        1.35      1.35      1.50      1.12         0.01
  YS02001602YS02001605        1.30      1.30      1.35      2.39         0.01
  YS02001605YS02001607        1.25      1.30      1.25      1.40         1.24
  YS02001607YS02001610        0.84      0.84      0.87      0.01         0.01
  YS02001610YS02001613        0.84      0.84      0.87      0.01         0.01
  YS02001613YS02001616        0.80      0.80      0.84      0.01         0.01
  YS02001616YS02001619        0.79      0.79      0.80      0.01         0.04
  YS02001619YS02001622        0.78      0.79      0.78      0.83         0.73
  YS02001622YS02001625        0.78      0.78      0.96      0.01         0.01
  YS02001625YS02001629        0.74      0.74      0.96      0.01         0.01
  YS02001629YS02163301        0.96      0.96      0.97      0.07         0.12
  YS02001633YS02163601        0.99      0.99      1.02      0.26         0.25
  YS02001641YS02001644        0.91      0.94      0.91      1.55         0.89
  YS02001644YS02001647        0.71      0.71      0.91      0.01         0.01
  YS02001647YS02001649        0.71      0.71      0.84      0.01         0.01
  YS02001649YS02001757        0.84      0.84      0.91      0.05         0.04
  YS02001652YS02001649        0.68      0.68      0.84      0.01         0.01
  YS02001655YS02001652        0.51      0.51      0.66      0.01         0.01
  YS02001658YS02001655        0.30      0.30      0.51      0.01         0.01
  YS02001661YS02001658        0.08      0.08      0.30      0.01         0.01
  YS02001664YS02001661        0.01      0.01      0.13      0.01         0.01
  YS02001745YS02001748        0.01      0.01      0.23      0.01         0.01
  YS02001748YS02001751        0.27      0.27      0.40      0.01         0.01
  YS02001751YS02001754        0.39      0.39      0.59      0.01         0.01
  YS02001754YS02001757        0.63      0.63      0.91      0.01         0.01
  YS02001757CaochengTiaoxuchi        0.91      0.91      1.99      0.35         0.35
  YS02001759YS02001757        0.82      0.82      0.91      0.01         0.01
  YS02001762YS02001759        0.80      0.80      0.82      0.01         0.02
  YS02001765YS02001762        0.75      0.75      0.80      0.01         0.01
  YS02001767YS02001765        0.72      0.72      0.75      0.01         0.02
  YS02001770YS02001767        0.72      0.72      0.72      0.47         0.45
  YS02001774YS02001770        0.70      0.70      0.78      0.01         0.01
  YS02001779YS02001774        0.57      0.57      0.78      0.01         0.01
  YS02001783YS02001784        0.53      0.56      0.53      0.72         0.53
  YS02001784YS02001785        0.42      0.53      0.42      0.97         0.42
  YS02001786YS02001788        0.01      0.42      0.01      0.85         0.01
  YS02001790YS02001791        0.01      0.01      0.01      0.52         0.01
  YS02001793JiankangQianchi        0.01      0.01      7.27      0.01         0.01
  YS02001882YS02001884        0.50      0.50      0.51      0.01         0.01
  YS02001884YS02001887        0.53      0.53      0.54      0.01         0.01
  YS02001887YS02001890        0.56      0.56      0.57      0.14         0.01
  YS02001890YS02001895        0.49      0.49      0.59      0.01         0.01
  YS02001895YS02001898        0.48      0.48      0.49      0.01         0.01
  YS02001898YS02001901        0.49      0.49      0.53      0.01         0.01
  YS02001901YS02001904        0.52      0.52      0.53      0.01         0.01
  YS02001904YS02001907        0.52      0.52      0.82      0.01         0.01
  YS02001907YS02006553        0.98      0.98      1.06      0.01         0.01
  YS02001910YS02001907        0.59      0.59      0.81      0.01         0.01
  YS02001915YS02001910        0.50      0.50      0.59      0.01         0.01
  YS02001918YS02001915        0.41      0.41      0.50      0.01         0.01
  YS02001920YS02001918        0.41      0.41      0.42      0.01         0.01
  YS02001923YS02001920        0.37      0.37      0.42      0.01         0.01
  YS02001926YS02001923        0.13      0.13      0.18      0.01         0.01
  YS02001929YS02001926        0.01      0.01      0.18      0.01         0.01
  YS02006553YS02006556        0.69      0.69      0.82      0.01         0.01
  YS02006556YS02006558        0.75      0.75      0.84      0.01         0.01
  YS02006558YS02006561        0.44      0.67      0.44      0.93         0.44
  YS02006561YS02001783        0.38      0.38      0.56      0.01         0.01
  YS02163301YS02001633        0.97      0.97      1.01      0.01         0.01
  YS02163601YS02164001        0.94      0.94      1.02      0.08         0.01
  YS02164001YS02001641        0.94      0.94      0.94      0.65         0.56
  
  
  ***************
  Pumping Summary
  ***************
  
  ---------------------------------------------------------------------------------------------------------
                                                  Min       Avg       Max     Total     Power    % Time Off
                        Percent   Number of      Flow      Flow      Flow    Volume     Usage    Pump Curve
  Pump                 Utilized   Start-Ups       LPS       LPS       LPS  10^6 ltr     Kw-hr    Low   High
  ---------------------------------------------------------------------------------------------------------
  CC-R1                   19.49           5      0.00    683.00    683.00     3.834     72.78    0.0   10.9
  CC-R2                   16.68           6      0.00    683.00    683.00     3.281     61.89    0.0   23.5
  CC-S1                   44.15           8      0.00    200.00    200.00     2.543     14.44    0.0    0.0
  CC-S2                   29.38           5      0.00    200.00    200.00     1.692      9.39    0.0    0.0
  JK-R1                    9.58          15      0.00   1000.00   1000.00     2.759     32.04    0.0    0.0
  JK-R2                    0.43           3      0.00   1000.00   1000.00     0.124      0.96    0.0    0.0
  JK-S                    16.15          26      0.00    300.00    300.00     1.395     18.94    0.0    0.0
  

  Analysis begun on:  Mon Feb 24 09:51:05 2025
  Analysis ended on:  Mon Feb 24 09:51:07 2025
  Total elapsed time: 00:00:02