
  EPA STORM WATER MANAGEMENT MODEL - VERSION 5.2 (Build 5.2.4)
  PYSWMM TOOLKIT API - VERSION v1.0 (2023-11-27)
  ------------------------------------------------------------

  WARNING 04: minimum elevation drop used for Conduit WS02004404WS02004405
  WARNING 03: negative offset ignored for Link YS02001904YS02001907
  
  ****************
  Analysis Options
  ****************
  Flow Units ............... LPS
  Process Models:
    Rainfall/Runoff ........ YES
    RDII ................... NO
    Snowmelt ............... NO
    Groundwater ............ NO
    Flow Routing ........... YES
    Ponding Allowed ........ NO
    Water Quality .......... NO
  Infiltration Method ...... HORTON
  Flow Routing Method ...... DYNWAVE
  Surcharge Method ......... EXTRAN
  Starting Date ............ 08/28/2015 08:00:00
  Ending Date .............. 08/28/2015 16:00:00
  Antecedent Dry Days ...... 8.0
  Report Time Step ......... 00:01:00
  Wet Time Step ............ 00:01:00
  Dry Time Step ............ 00:01:00
  Routing Time Step ........ 30.00 sec
  Variable Time Step ....... YES
  Maximum Trials ........... 8
  Number of Threads ........ 4
  Head Tolerance ........... 0.001500 m
  
  
  **************************        Volume         Depth
  Runoff Quantity Continuity     hectare-m            mm
  **************************     ---------       -------
  Total Precipitation ......         1.548        46.668
  Evaporation Loss .........         0.000         0.000
  Infiltration Loss ........         0.095         2.858
  Surface Runoff ...........         1.421        42.828
  Final Storage ............         0.033         0.993
  Continuity Error (%) .....        -0.024
  
  
  **************************        Volume        Volume
  Flow Routing Continuity        hectare-m      10^6 ltr
  **************************     ---------     ---------
  Dry Weather Inflow .......         0.025         0.251
  Wet Weather Inflow .......         1.421        14.207
  Groundwater Inflow .......         0.000         0.000
  RDII Inflow ..............         0.000         0.000
  External Inflow ..........         0.083         0.834
  External Outflow .........         1.268        12.676
  Flooding Loss ............         0.329         3.286
  Evaporation Loss .........         0.000         0.000
  Exfiltration Loss ........         0.000         0.000
  Initial Stored Volume ....         0.243         2.431
  Final Stored Volume ......         0.182         1.820
  Continuity Error (%) .....        -0.342
  
  
  *************************
  Highest Continuity Errors
  *************************
  Node YS02001583 (-5.90%)
  Node YS02001884 (5.31%)
  Node WS02006256 (-1.50%)
  Node YS02001774 (1.26%)
  
  
  ***************************
  Time-Step Critical Elements
  ***************************
  Link WS02006252WS02006251 (49.41%)
  Link WS02006238WS02006235 (15.19%)
  Link WS02004404WS02004405 (10.95%)
  Link WS02003066WSF200 (6.62%)
  Link YS02001791YS02001793 (5.59%)
  
  
  ********************************
  Highest Flow Instability Indexes
  ********************************
  Link WS02006113WS02006111 (43)
  Link WS02006111WS02006112 (21)
  Link WS02006256WS02006235 (15)
  Link WS02006252WS02006251 (12)
  Link WS02006238WS02006235 (12)
  
  
  *********************************
  Most Frequent Nonconverging Nodes
  *********************************
  Node CC-1 (10.53%)
  Node CC-2 (10.53%)
  Node JK-1 (10.53%)
  Node JK-2 (10.53%)
  Node WSC (10.53%)
  
  
  *************************
  Routing Time Step Summary
  *************************
  Minimum Time Step           :     0.01 sec
  Average Time Step           :     1.97 sec
  Maximum Time Step           :     7.04 sec
  % of Time in Steady State   :     0.00
  Average Iterations per Step :     2.92
  % of Steps Not Converging   :    10.53
  Time Step Frequencies       :
     30.000 - 13.228 sec      :     0.00 %
     13.228 -  5.833 sec      :     7.31 %
      5.833 -  2.572 sec      :    23.10 %
      2.572 -  1.134 sec      :    15.66 %
      1.134 -  0.500 sec      :    53.94 %
  
  
  ***************************
  Subcatchment Runoff Summary
  ***************************
  
  ------------------------------------------------------------------------------------------------------------------------------
                            Total      Total      Total      Total     Imperv       Perv      Total       Total     Peak  Runoff
                           Precip      Runon       Evap      Infil     Runoff     Runoff     Runoff      Runoff   Runoff   Coeff
  Subcatchment                 mm         mm         mm         mm         mm         mm         mm    10^6 ltr      LPS
  ------------------------------------------------------------------------------------------------------------------------------
  sub60                     46.67       0.00       0.00       1.71      39.86       3.89      43.75        0.57   434.94   0.938
  sub61                     46.67       0.00       0.00       2.49      37.60       5.45      43.05        0.79   602.65   0.922
  sub62                     46.67       0.00       0.00       1.14      41.65       2.59      44.24        1.21   841.75   0.948
  sub63                     46.67       0.00       0.00       4.62      32.16       8.92      41.08        0.93   664.26   0.880
  sub64                     46.67       0.00       0.00       2.33      38.46       4.67      43.13        1.04   678.53   0.924
  sub65                     46.67       0.00       0.00       2.02      39.35       4.05      43.40        1.19   754.99   0.930
  sub66                     46.67       0.00       0.00       5.72      32.06       7.82      39.88        1.86   959.56   0.855
  sub67                     46.67       0.00       0.00       1.10      41.69       2.64      44.32        0.82   664.80   0.950
  sub68                     46.67       0.00       0.00       2.06      38.95       4.47      43.42        1.19   862.34   0.930
  sub69                     46.67       0.00       0.00       1.82      39.56       5.18      44.74        1.66  1005.88   0.959
  sub70                     46.67       0.00       0.00       6.09      30.64       9.78      40.41        1.17   537.54   0.866
  sub71                     46.67       0.00       0.00       1.17      41.61       2.56      44.17        1.16   734.68   0.946
  sub72                     46.67       0.00       0.00       1.05      42.00       2.22      44.22        0.61   350.03   0.948
  
  
  ******************
  Node Depth Summary
  ******************
  
  ---------------------------------------------------------------------------------
                                 Average  Maximum  Maximum  Time of Max    Reported
                                   Depth    Depth      HGL   Occurrence   Max Depth
  Node                 Type       Meters   Meters   Meters  days hr:min      Meters
  ---------------------------------------------------------------------------------
  WS02003060           JUNCTION     0.23     0.38     5.31     0  02:31        0.38
  WS02003066           JUNCTION     0.19     0.30     5.85     0  02:33        0.30
  WS02003067           JUNCTION     0.49     0.70     6.02     0  02:33        0.70
  WS02003069           JUNCTION     0.25     0.43     5.01     0  02:34        0.43
  WS02003072           JUNCTION     0.32     0.50     4.87     0  02:34        0.50
  WS02003073           JUNCTION     0.18     0.30     4.36     0  02:35        0.30
  WS02004401           JUNCTION     0.57     0.85     6.85     0  02:30        0.85
  WS02004402           JUNCTION     0.60     0.88     6.84     0  02:31        0.88
  WS02004403           JUNCTION     0.63     0.89     6.82     0  02:31        0.89
  WS02004404           JUNCTION     0.70     0.96     6.81     0  02:31        0.96
  WS02004405           JUNCTION     0.70     0.95     6.80     0  02:31        0.95
  WS02004406           JUNCTION     0.71     0.96     6.79     0  02:31        0.95
  WS02004407           JUNCTION     0.17     0.29     6.61     0  02:31        0.29
  WS02004409           JUNCTION     0.38     0.66     6.43     0  02:32        0.66
  WS02004410           JUNCTION     0.40     0.68     6.40     0  02:32        0.68
  WS02004411           JUNCTION     0.42     0.69     6.37     0  02:32        0.69
  WS02004412           JUNCTION     0.45     0.69     6.33     0  02:32        0.69
  WS02004413           JUNCTION     0.61     0.85     6.32     0  02:32        0.85
  WS02006109           JUNCTION     0.63     1.30     7.92     0  02:31        1.26
  WS02006110           JUNCTION     0.63     1.38     7.96     0  02:31        1.03
  WS02006111           JUNCTION     0.17     0.29     7.00     0  02:48        0.29
  WS02006112           JUNCTION     0.72     1.13     7.01     0  03:02        1.05
  WS02006113           JUNCTION     0.26     0.46     7.35     0  02:48        0.46
  WS02006115           JUNCTION     0.45     0.75     6.89     0  02:30        0.75
  WS02006116           JUNCTION     0.54     0.83     6.87     0  02:30        0.83
  WS02006228           JUNCTION     0.61     1.33     7.98     0  03:14        1.33
  WS02006229           JUNCTION     0.58     1.27     7.96     0  03:14        1.27
  WS02006230           JUNCTION     0.58     1.32     8.06     0  02:31        1.23
  WS02006231           JUNCTION     0.40     2.24     9.36     0  02:46        2.24
  WS02006232           JUNCTION     0.53     1.73     8.77     0  02:46        1.73
  WS02006234           JUNCTION     0.45     1.71     8.87     0  02:25        1.46
  WS02006235           JUNCTION     0.48     2.00     9.16     0  02:25        1.68
  WS02006238           JUNCTION     0.51     2.08     9.22     0  02:25        1.73
  WS02006239           JUNCTION     0.47     2.01     9.21     0  02:25        1.70
  WS02006240           JUNCTION     0.43     1.81     9.10     0  02:25        1.63
  WS02006242           JUNCTION     0.50     1.55     8.82     0  02:25        1.55
  WS02006243           JUNCTION     0.41     1.42     8.84     0  02:25        1.37
  WS02006245           JUNCTION     0.41     1.35     8.83     0  02:25        1.23
  WS02006247           JUNCTION     0.44     1.28     8.78     0  02:25        1.20
  WS02006248           JUNCTION     0.40     1.10     8.69     0  02:15        1.10
  WS02006249           JUNCTION     0.43     1.09     8.69     0  02:12        1.09
  WS02006251           JUNCTION     0.43     1.43     9.10     0  02:31        1.16
  WS02006252           JUNCTION     0.33     1.50     9.74     0  00:00        0.71
  WS02006256           JUNCTION     0.92     2.35     9.28     0  00:00        2.35
  WSF200               JUNCTION     0.16     0.29     5.52     0  02:30        0.29
  YS02001580           JUNCTION     0.06     1.05     9.59     0  02:08        0.77
  YS02001583           JUNCTION     0.09     1.14     9.64     0  02:08        0.81
  YS02001586           JUNCTION     0.14     1.13     9.30     0  02:08        1.13
  YS02001590           JUNCTION     0.23     1.40     9.26     0  02:05        1.37
  YS02001593           JUNCTION     0.17     1.35     9.21     0  02:08        1.28
  YS02001596           JUNCTION     0.23     1.69     9.11     0  02:08        1.65
  YS02001600           JUNCTION     0.28     1.87     9.00     0  02:08        1.86
  YS02001601           JUNCTION     0.47     2.06     8.90     0  02:07        2.06
  YS02001602           JUNCTION     0.38     1.87     8.77     0  02:07        1.87
  YS02001605           JUNCTION     0.36     1.78     8.68     0  02:07        1.78
  YS02001607           JUNCTION     0.36     1.67     8.52     0  02:07        1.65
  YS02001610           JUNCTION     0.41     1.68     8.48     0  02:07        1.68
  YS02001613           JUNCTION     0.36     1.70     8.54     0  02:07        1.67
  YS02001616           JUNCTION     0.29     1.61     8.52     0  02:07        1.61
  YS02001619           JUNCTION     0.27     1.61     8.54     0  02:07        1.61
  YS02001622           JUNCTION     0.26     1.62     8.52     0  02:07        1.57
  YS02001625           JUNCTION     0.53     1.78     8.38     0  02:07        1.78
  YS02001629           JUNCTION     0.37     1.85     8.40     0  02:07        1.85
  YS02001633           JUNCTION     0.45     2.02     8.48     0  02:11        2.00
  YS02001641           JUNCTION     0.44     1.96     8.39     0  02:11        1.95
  YS02001644           JUNCTION     0.44     1.92     8.35     0  02:11        1.92
  YS02001647           JUNCTION     0.23     1.78     8.39     0  02:11        1.72
  YS02001649           JUNCTION     0.26     2.01     8.40     0  02:12        1.92
  YS02001652           JUNCTION     0.16     1.92     8.51     0  02:12        1.77
  YS02001655           JUNCTION     0.12     1.87     8.72     0  02:11        1.57
  YS02001658           JUNCTION     0.09     1.86     9.00     0  02:11        1.33
  YS02001661           JUNCTION     0.13     1.43     8.83     0  02:12        1.12
  YS02001664           JUNCTION     0.04     0.73     8.66     0  02:12        0.63
  YS02001745           JUNCTION     0.05     1.10     8.62     0  02:12        0.88
  YS02001748           JUNCTION     0.08     2.09     9.17     0  02:12        1.16
  YS02001751           JUNCTION     0.10     1.96     8.84     0  02:12        1.32
  YS02001754           JUNCTION     0.14     1.89     8.49     0  02:12        1.58
  YS02001757           JUNCTION     0.29     2.09     8.35     0  02:12        1.93
  YS02001759           JUNCTION     0.22     2.04     8.41     0  02:12        1.91
  YS02001762           JUNCTION     0.22     2.03     8.43     0  02:12        1.90
  YS02001765           JUNCTION     0.20     2.00     8.45     0  02:12        1.86
  YS02001767           JUNCTION     0.20     1.96     8.45     0  02:12        1.87
  YS02001770           JUNCTION     0.21     1.95     8.44     0  02:10        1.92
  YS02001774           JUNCTION     0.27     2.05     8.47     0  02:10        1.98
  YS02001779           JUNCTION     0.12     1.68     8.37     0  02:10        1.68
  YS02001783           JUNCTION     0.19     1.30     7.44     0  02:10        1.24
  YS02001784           JUNCTION     0.21     1.17     7.23     0  02:10        1.13
  YS02001786           JUNCTION     0.18     0.91     6.94     0  02:10        0.88
  YS02001788           JUNCTION     0.13     0.62     6.60     0  02:11        0.62
  YS02001790           JUNCTION     0.15     0.73     6.37     0  02:12        0.71
  YS02001791           JUNCTION     0.10     0.44     5.91     0  02:15        0.44
  YS02001793           JUNCTION     0.05     0.31     5.14     0  02:16        0.31
  YS02001882           JUNCTION     0.25     1.74     8.45     0  02:10        1.64
  YS02001884           JUNCTION     0.34     1.82     8.44     0  02:10        1.73
  YS02001887           JUNCTION     0.42     1.86     8.40     0  02:10        1.81
  YS02001890           JUNCTION     0.45     1.81     8.32     0  02:10        1.81
  YS02001895           JUNCTION     0.22     1.60     8.35     0  02:10        1.56
  YS02001898           JUNCTION     0.23     1.62     8.35     0  02:10        1.56
  YS02001901           JUNCTION     0.34     1.72     8.32     0  02:10        1.67
  YS02001904           JUNCTION     0.32     1.66     8.29     0  02:10        1.64
  YS02001907           JUNCTION     0.65     1.96     8.25     0  02:10        1.96
  YS02001910           JUNCTION     0.44     1.97     8.48     0  02:11        1.84
  YS02001915           JUNCTION     0.25     1.93     8.64     0  02:11        1.71
  YS02001918           JUNCTION     0.12     1.81     8.88     0  02:11        1.37
  YS02001920           JUNCTION     0.20     2.14     9.15     0  02:11        1.44
  YS02001923           JUNCTION     0.09     2.03     9.29     0  02:11        1.21
  YS02001926           JUNCTION     0.13     1.90     9.35     0  02:11        1.03
  YS02001929           JUNCTION     0.07     1.78     9.47     0  02:11        0.79
  YS02006553           JUNCTION     0.65     1.98     8.26     0  02:10        1.98
  YS02006556           JUNCTION     0.62     1.97     8.28     0  02:10        1.95
  YS02006558           JUNCTION     0.67     2.01     8.28     0  02:10        2.00
  YS02006561           JUNCTION     0.12     0.98     7.64     0  02:10        0.91
  YS02163301           JUNCTION     0.39     1.92     8.44     0  02:11        1.91
  YS02163601           JUNCTION     0.49     2.05     8.44     0  02:11        2.03
  YS02164001           JUNCTION     0.43     1.96     8.42     0  02:11        1.95
  CC-1                 OUTFALL      0.00     0.00     0.00     0  00:00        0.00
  CC-2                 OUTFALL      0.00     0.00     0.00     0  00:00        0.00
  JK-1                 OUTFALL      0.00     0.00     0.00     0  00:00        0.00
  JK-2                 OUTFALL      0.00     0.00     0.00     0  00:00        0.00
  WSC                  OUTFALL      0.18     0.30     0.97     0  02:35        0.30
  CC-storage           STORAGE      0.89     1.59     7.09     0  02:33        1.59
  JK-storage           STORAGE      2.79     4.23     5.03     0  02:15        4.17
  
  
  *******************
  Node Inflow Summary
  *******************
  
  -------------------------------------------------------------------------------------------------
                                  Maximum  Maximum                  Lateral       Total        Flow
                                  Lateral    Total  Time of Max      Inflow      Inflow     Balance
                                   Inflow   Inflow   Occurrence      Volume      Volume       Error
  Node                 Type           LPS      LPS  days hr:min    10^6 ltr    10^6 ltr     Percent
  -------------------------------------------------------------------------------------------------
  WS02003060           JUNCTION     16.53   548.70     0  02:31       0.476        5.09       0.044
  WS02003066           JUNCTION      0.00   531.76     0  02:33           0        4.62       0.030
  WS02003067           JUNCTION      0.00   531.68     0  02:33           0        4.62       0.091
  WS02003069           JUNCTION      0.32   548.58     0  02:34     0.00922         5.1       0.077
  WS02003072           JUNCTION      0.00   547.92     0  02:34           0        5.09       0.139
  WS02003073           JUNCTION      1.82   549.75     0  02:34      0.0524        5.14       0.114
  WS02004401           JUNCTION      0.00   538.13     0  02:27           0        4.72       0.218
  WS02004402           JUNCTION      0.00   537.26     0  02:30           0        4.71       0.222
  WS02004403           JUNCTION      0.00   536.63     0  02:28           0         4.7       0.216
  WS02004404           JUNCTION      0.16   536.39     0  02:31     0.00467         4.7       0.202
  WS02004405           JUNCTION      0.04   536.06     0  02:31      0.0011        4.69       0.248
  WS02004406           JUNCTION      0.00   535.81     0  02:31           0        4.68       0.446
  WS02004407           JUNCTION      0.00   535.28     0  02:31           0        4.65       0.026
  WS02004409           JUNCTION      0.00   534.87     0  02:31           0        4.65       0.059
  WS02004410           JUNCTION      0.00   533.24     0  02:31           0        4.65       0.095
  WS02004411           JUNCTION      0.00   532.92     0  02:32           0        4.65       0.121
  WS02004412           JUNCTION      0.00   532.05     0  02:32           0        4.64       0.162
  WS02004413           JUNCTION      0.00   531.98     0  02:32           0        4.63       0.286
  WS02006109           JUNCTION      1.23   556.31     0  03:33      0.0354        4.77       0.102
  WS02006110           JUNCTION      0.00   557.51     0  03:33           0        4.76       0.146
  WS02006111           JUNCTION      0.00   564.42     0  02:48           0        4.75       0.018
  WS02006112           JUNCTION      0.00   545.12     0  02:48           0        4.75       0.377
  WS02006113           JUNCTION      0.00   571.58     0  03:14           0        4.76       0.047
  WS02006115           JUNCTION      0.00   553.78     0  03:15           0        4.73       0.140
  WS02006116           JUNCTION      0.00   541.09     0  02:30           0        4.73       0.125
  WS02006228           JUNCTION      0.00   554.48     0  02:31           0        4.73       0.055
  WS02006229           JUNCTION      0.00   554.12     0  02:31           0        4.74       0.136
  WS02006230           JUNCTION     10.28   614.33     0  03:01       0.296        4.75       0.092
  WS02006231           JUNCTION      0.00   604.13     0  02:57           0        4.44      -0.102
  WS02006232           JUNCTION      0.00   601.80     0  02:57           0        4.46       0.299
  WS02006234           JUNCTION      0.00   589.95     0  02:57           0        4.44      -0.293
  WS02006235           JUNCTION      0.00   569.50     0  02:57           0        4.54       0.315
  WS02006238           JUNCTION      0.00   423.80     0  02:35           0        3.75      -0.290
  WS02006239           JUNCTION      0.00   422.78     0  03:15           0        3.69      -0.165
  WS02006240           JUNCTION      0.00   420.97     0  03:15           0        3.64      -0.103
  WS02006242           JUNCTION      0.00   420.59     0  03:15           0        3.62      -0.045
  WS02006243           JUNCTION      0.00   420.93     0  03:15           0        3.61      -0.012
  WS02006245           JUNCTION      0.00   420.94     0  03:15           0        3.62       0.559
  WS02006247           JUNCTION      0.00   420.67     0  02:25           0        3.63       0.032
  WS02006248           JUNCTION      0.00   421.63     0  02:25           0        3.63       0.149
  WS02006249           JUNCTION      0.00   465.23     0  05:35           0        3.81       0.502
  WS02006251           JUNCTION      0.08   408.05     0  02:57     0.00222        3.81      -0.030
  WS02006252           JUNCTION      0.00   400.00     0  00:00           0         3.8      -0.104
  WS02006256           JUNCTION      0.00   300.00     0  00:00           0        1.18      -1.478
  WSF200               JUNCTION      0.00   531.82     0  02:33           0        4.61       0.010
  YS02001580           JUNCTION      0.00   118.41     0  02:08           0     0.00426      -2.467
  YS02001583           JUNCTION      0.00   192.16     0  02:08           0      0.0152      -5.574
  YS02001586           JUNCTION    537.54   537.57     0  02:15        1.17        1.18       0.116
  YS02001590           JUNCTION      0.00   317.95     0  02:20           0        1.03      -0.032
  YS02001593           JUNCTION      0.00   317.97     0  02:23           0        1.03      -0.000
  YS02001596           JUNCTION      0.00   317.93     0  02:14           0        1.03      -0.009
  YS02001600           JUNCTION      0.00   318.02     0  02:19           0        1.03       0.022
  YS02001601           JUNCTION   1005.88  1323.37     0  02:14        1.66        2.69       0.039
  YS02001602           JUNCTION      0.00   525.24     0  02:07           0        1.87       0.028
  YS02001605           JUNCTION      0.00   525.00     0  02:07           0        1.79       0.029
  YS02001607           JUNCTION      0.00   524.43     0  02:07           0        1.79       0.103
  YS02001610           JUNCTION      0.00   536.84     0  02:07           0        1.82       0.123
  YS02001613           JUNCTION      0.00   543.46     0  02:07           0        1.55       0.104
  YS02001616           JUNCTION      0.00   544.44     0  02:07           0        1.55       0.022
  YS02001619           JUNCTION    959.56   959.56     0  02:15        1.86        3.37      -0.004
  YS02001622           JUNCTION      0.00   928.02     0  02:09           0        3.34      -0.002
  YS02001625           JUNCTION      0.00  1065.53     0  02:15           0         3.4       0.263
  YS02001629           JUNCTION      0.00   931.27     0  02:07           0        2.84       0.024
  YS02001633           JUNCTION    755.19  1377.69     0  02:09         1.2        3.96       0.088
  YS02001641           JUNCTION      0.00  1375.08     0  02:09           0         3.9       0.070
  YS02001644           JUNCTION    678.57  1785.10     0  02:09        1.04        4.93       0.069
  YS02001647           JUNCTION      0.00  1784.68     0  02:09           0         4.8       0.013
  YS02001649           JUNCTION      0.00  2015.70     0  02:09           0        5.74       0.002
  YS02001652           JUNCTION      0.00   844.10     0  02:13           0        0.94      -0.105
  YS02001655           JUNCTION      0.15   843.58     0  02:13     0.00443       0.939      -0.040
  YS02001658           JUNCTION      0.00   842.35     0  02:13           0       0.934      -0.056
  YS02001661           JUNCTION      0.00   812.10     0  02:13           0       0.934      -0.029
  YS02001664           JUNCTION    664.26   664.26     0  02:14       0.933       0.933      -0.018
  YS02001745           JUNCTION    434.95   541.50     0  02:11       0.575       0.576       0.223
  YS02001748           JUNCTION      0.04   581.09     0  02:12      0.0013       0.579      -0.374
  YS02001751           JUNCTION      0.01   554.26     0  02:12    0.000317       0.588       0.127
  YS02001754           JUNCTION      0.26   556.09     0  02:12     0.00749       0.604      -0.250
  YS02001757           JUNCTION      0.00  3251.35     0  02:12           0        8.32       0.017
  YS02001759           JUNCTION    602.69  1276.76     0  02:11       0.791        1.98      -0.008
  YS02001762           JUNCTION      0.00   742.36     0  02:11           0        1.19      -0.007
  YS02001765           JUNCTION      0.00   739.81     0  02:11           0        1.19       0.024
  YS02001767           JUNCTION      0.54   738.49     0  02:11      0.0154        1.19       0.003
  YS02001770           JUNCTION    841.90   841.90     0  02:14        1.22        1.26      -0.016
  YS02001774           JUNCTION      0.00   448.62     0  02:10           0       0.099       1.280
  YS02001779           JUNCTION      0.01   466.61     0  02:10    0.000144      0.0562      -1.995
  YS02001783           JUNCTION      0.00  1159.57     0  02:13           0         3.2       0.008
  YS02001784           JUNCTION      1.06  1160.33     0  02:13      0.0305        3.23       0.017
  YS02001786           JUNCTION      0.06  1161.20     0  02:13     0.00162        3.23       0.021
  YS02001788           JUNCTION      0.07  1161.44     0  02:13     0.00204        3.23       0.009
  YS02001790           JUNCTION      0.15  1173.63     0  02:11     0.00446        3.24       0.027
  YS02001791           JUNCTION      0.00  1293.38     0  02:12           0        3.23      -0.024
  YS02001793           JUNCTION      0.00  1250.15     0  02:16           0        3.24       0.006
  YS02001882           JUNCTION      0.00    51.19     0  02:09           0      0.0123       4.646
  YS02001884           JUNCTION      0.00    69.90     0  02:07           0       0.048       5.602
  YS02001887           JUNCTION    665.25   666.67     0  02:13       0.837       0.871       0.516
  YS02001890           JUNCTION      0.00   665.40     0  02:13           0        0.83       0.624
  YS02001895           JUNCTION      0.00   515.60     0  02:15           0       0.792       0.166
  YS02001898           JUNCTION      0.00   515.56     0  02:15           0        0.79       0.035
  YS02001901           JUNCTION      0.00   516.13     0  02:16           0       0.793       0.412
  YS02001904           JUNCTION      0.00   515.95     0  02:15           0       0.797       0.357
  YS02001907           JUNCTION      0.00  1619.66     0  02:15           0        2.63       0.686
  YS02001910           JUNCTION      0.00  1105.20     0  02:15           0        1.84       0.388
  YS02001915           JUNCTION    734.70  1104.97     0  02:15        1.16        1.89       0.090
  YS02001918           JUNCTION      0.00   444.24     0  02:10           0       0.764       0.027
  YS02001920           JUNCTION      2.87   442.93     0  02:12      0.0827       0.745       0.134
  YS02001923           JUNCTION      0.04   441.27     0  02:10     0.00109       0.646      -0.150
  YS02001926           JUNCTION      0.05   643.94     0  02:11      0.0015       0.625      -0.104
  YS02001929           JUNCTION    350.03   530.48     0  02:11       0.608       0.612      -0.043
  YS02006553           JUNCTION      0.00   797.24     0  02:25           0        2.02       0.600
  YS02006556           JUNCTION      0.00   797.32     0  02:25           0        2.03       0.390
  YS02006558           JUNCTION    863.22  1160.54     0  02:13        1.22        3.23       0.115
  YS02006561           JUNCTION      0.00  1159.64     0  02:13           0         3.2      -0.003
  YS02163301           JUNCTION      0.00   928.05     0  02:09           0        2.83       0.053
  YS02163601           JUNCTION      0.11  1376.95     0  02:09     0.00317         3.9       0.127
  YS02164001           JUNCTION      0.00  1376.26     0  02:09           0        3.89       0.060
  CC-1                 OUTFALL       0.00   683.00     0  00:00           0        2.78       0.000
  CC-2                 OUTFALL       0.00   683.00     0  00:00           0        2.58       0.000
  JK-1                 OUTFALL       0.00  1000.00     0  00:00           0        1.85       0.000
  JK-2                 OUTFALL       0.00  1000.00     0  00:00           0       0.335       0.000
  WSC                  OUTFALL       0.00   549.54     0  02:35           0        5.13       0.000
  CC-storage           STORAGE       0.00  3252.64     0  02:12           0        10.5      -0.259
  JK-storage           STORAGE       0.00  1219.63     0  02:16           0        3.39      -0.497
  
  
  **********************
  Node Surcharge Summary
  **********************
  
  Surcharging occurs when water rises above the top of the highest conduit.
  ---------------------------------------------------------------------
                                               Max. Height   Min. Depth
                                   Hours       Above Crown    Below Rim
  Node                 Type      Surcharged         Meters       Meters
  ---------------------------------------------------------------------
  WS02006109           JUNCTION        1.67          0.485        1.335
  WS02006110           JUNCTION        0.48          0.469        1.381
  WS02006112           JUNCTION        0.53          0.130        1.550
  WS02006228           JUNCTION        1.66          0.503        1.697
  WS02006229           JUNCTION        1.67          0.470        1.980
  WS02006230           JUNCTION        0.49          0.239        1.331
  WS02006231           JUNCTION        0.66          1.530        0.000
  WS02006232           JUNCTION        1.71          1.028        0.452
  WS02006234           JUNCTION        1.06          0.990        0.250
  WS02006235           JUNCTION        1.62          1.290        0.000
  WS02006238           JUNCTION        1.67          1.358        0.072
  WS02006239           JUNCTION        1.64          1.265        0.025
  WS02006240           JUNCTION        1.66          1.099        0.291
  WS02006242           JUNCTION        1.67          0.820        0.000
  WS02006243           JUNCTION        1.65          0.715        0.055
  WS02006245           JUNCTION        1.65          0.639        0.211
  WS02006247           JUNCTION        1.65          0.575        0.185
  WS02006248           JUNCTION        1.64          0.380        0.000
  WS02006249           JUNCTION        1.64          0.390        0.000
  WS02006251           JUNCTION        0.75          0.397        0.783
  WS02006252           JUNCTION        1.96          1.100        0.000
  WS02006256           JUNCTION        6.64          2.050        0.000
  YS02001580           JUNCTION        0.41          0.450        0.000
  YS02001583           JUNCTION        0.41          0.500        0.000
  YS02001586           JUNCTION        0.53          0.510        0.000
  YS02001590           JUNCTION        0.59          0.750        0.000
  YS02001593           JUNCTION        0.59          0.726        0.114
  YS02001596           JUNCTION        0.69          0.961        0.109
  YS02001600           JUNCTION        0.82          1.190        0.000
  YS02001601           JUNCTION        1.15          1.440        0.000
  YS02001602           JUNCTION        1.04          1.270        0.000
  YS02001605           JUNCTION        0.98          1.180        0.000
  YS02001607           JUNCTION        0.57          0.667        0.013
  YS02001610           JUNCTION        0.59          0.680        0.000
  YS02001613           JUNCTION        0.56          0.700        0.000
  YS02001616           JUNCTION        0.53          0.610        0.000
  YS02001619           JUNCTION        0.52          0.610        0.000
  YS02001622           JUNCTION        0.51          0.620        0.000
  YS02001625           JUNCTION        0.67          0.780        0.000
  YS02001629           JUNCTION        0.47          0.470        0.000
  YS02001633           JUNCTION        0.69          1.003        0.057
  YS02001641           JUNCTION        0.64          0.957        0.143
  YS02001644           JUNCTION        0.60          0.920        0.000
  YS02001647           JUNCTION        0.43          0.782        0.118
  YS02001649           JUNCTION        0.53          1.007        0.043
  YS02001652           JUNCTION        0.37          0.888        0.242
  YS02001655           JUNCTION        0.26          0.871        0.329
  YS02001658           JUNCTION        0.12          0.856        0.444
  YS02001661           JUNCTION        0.01          0.358        1.032
  YS02001745           JUNCTION        0.01          0.105        1.245
  YS02001748           JUNCTION        0.07          1.011        0.179
  YS02001751           JUNCTION        0.17          0.960        0.240
  YS02001754           JUNCTION        0.30          0.836        0.314
  YS02001757           JUNCTION        0.59          1.089        0.121
  YS02001759           JUNCTION        0.50          1.043        0.167
  YS02001762           JUNCTION        0.47          1.030        0.120
  YS02001765           JUNCTION        0.44          1.000        0.100
  YS02001767           JUNCTION        0.41          0.957        0.073
  YS02001770           JUNCTION        0.39          0.920        0.000
  YS02001774           JUNCTION        0.46          1.050        0.000
  YS02001779           JUNCTION        0.30          0.680        0.000
  YS02001783           JUNCTION        0.39          0.500        1.100
  YS02001784           JUNCTION        0.37          0.367        1.123
  YS02001786           JUNCTION        0.28          0.105        1.325
  YS02001882           JUNCTION        0.35          0.739        0.091
  YS02001884           JUNCTION        0.36          0.763        0.107
  YS02001887           JUNCTION        0.39          0.814        0.136
  YS02001890           JUNCTION        0.40          0.760        0.000
  YS02001895           JUNCTION        0.34          0.600        0.150
  YS02001898           JUNCTION        0.33          0.587        0.153
  YS02001901           JUNCTION        0.37          0.716        0.154
  YS02001904           JUNCTION        0.37          0.659        0.191
  YS02001907           JUNCTION        0.58          0.950        0.000
  YS02001910           JUNCTION        0.42          0.969        0.131
  YS02001915           JUNCTION        0.35          0.926        0.074
  YS02001918           JUNCTION        0.27          0.810        0.000
  YS02001920           JUNCTION        0.29          1.140        0.000
  YS02001923           JUNCTION        0.01          0.820        0.000
  YS02001926           JUNCTION        0.03          0.900        0.000
  YS02001929           JUNCTION        0.01          0.780        0.000
  YS02006553           JUNCTION        0.59          0.981        0.209
  YS02006556           JUNCTION        0.50          0.927        0.423
  YS02006558           JUNCTION        0.49          0.912        0.488
  YS02006561           JUNCTION        0.24          0.182        0.968
  YS02163301           JUNCTION        0.67          0.925        0.105
  YS02163601           JUNCTION        0.72          1.046        0.034
  YS02164001           JUNCTION        0.64          0.959        0.141
  
  
  *********************
  Node Flooding Summary
  *********************
  
  Flooding refers to all water that overflows a node, whether it ponds or not.
  --------------------------------------------------------------------------
                                                             Total   Maximum
                                 Maximum   Time of Max       Flood    Ponded
                        Hours       Rate    Occurrence      Volume     Depth
  Node                 Flooded       LPS   days hr:min    10^6 ltr    Meters
  --------------------------------------------------------------------------
  WS02006231              0.01     48.80      0  02:46       0.000     0.000
  WS02006235              0.01     12.05      0  02:25       0.000     0.000
  WS02006242              0.01     30.38      0  02:25       0.000     0.000
  WS02006248              0.02     20.60      0  03:01       0.001     0.000
  WS02006249              0.71     99.95      0  02:12       0.162     0.000
  WS02006252              0.01    245.63      0  00:00       0.000     0.000
  WS02006256              1.09    293.19      0  00:00       0.355     0.000
  YS02001580              0.01     96.23      0  02:08       0.000     0.000
  YS02001583              0.01    115.37      0  02:08       0.000     0.000
  YS02001586              0.31    220.15      0  02:15       0.132     0.000
  YS02001590              0.01     31.92      0  02:05       0.000     0.000
  YS02001600              0.01      1.60      0  02:08       0.000     0.000
  YS02001601              0.47    925.54      0  02:14       0.820     0.000
  YS02001602              0.38     62.00      0  02:13       0.076     0.000
  YS02001605              0.01      6.43      0  02:07       0.000     0.000
  YS02001610              0.33    443.49      0  02:16       0.303     0.000
  YS02001613              0.01     21.08      0  02:07       0.000     0.000
  YS02001616              0.01     47.37      0  02:07       0.000     0.000
  YS02001619              0.01     81.31      0  02:07       0.000     0.000
  YS02001622              0.01     96.92      0  02:07       0.000     0.000
  YS02001625              0.31   1065.13      0  02:15       0.613     0.000
  YS02001629              0.07    210.59      0  02:07       0.024     0.000
  YS02001644              0.10    623.85      0  02:13       0.122     0.000
  YS02001770              0.01     37.64      0  02:10       0.000     0.000
  YS02001774              0.01      8.64      0  02:10       0.000     0.000
  YS02001779              0.09    383.58      0  02:10       0.040     0.000
  YS02001890              0.09    161.89      0  02:13       0.033     0.000
  YS02001907              0.23   1284.58      0  02:14       0.599     0.000
  YS02001918              0.01    247.25      0  02:11       0.003     0.000
  YS02001920              0.01     58.07      0  02:11       0.000     0.000
  YS02001923              0.01    266.88      0  02:11       0.001     0.000
  YS02001926              0.01    196.11      0  02:11       0.001     0.000
  YS02001929              0.01    252.25      0  02:11       0.000     0.000
  
  
  **********************
  Storage Volume Summary
  **********************
  
  ------------------------------------------------------------------------------------------------
                         Average    Avg   Evap  Exfil     Maximum    Max    Time of Max    Maximum
                          Volume   Pcnt   Pcnt   Pcnt      Volume   Pcnt     Occurrence    Outflow
  Storage Unit           1000 m³   Full   Loss   Loss     1000 m³   Full    days hr:min        LPS
  ------------------------------------------------------------------------------------------------
  CC-storage               2.483   38.7    0.0    0.0       4.432   69.1       0  02:33    1783.53
  JK-storage               0.140   48.1    0.0    0.0       0.212   72.9       0  02:15    2300.00
  
  
  ***********************
  Outfall Loading Summary
  ***********************
  
  -----------------------------------------------------------
                         Flow       Avg       Max       Total
                         Freq      Flow      Flow      Volume
  Outfall Node           Pcnt       LPS       LPS    10^6 ltr
  -----------------------------------------------------------
  CC-1                  14.42    683.00    683.00       2.782
  CC-2                  14.74    683.00    683.00       2.581
  JK-1                   7.95   1000.00   1000.00       1.846
  JK-2                   1.60   1000.00   1000.00       0.335
  WSC                   99.96    240.22    549.54       5.133
  -----------------------------------------------------------
  System                27.74   3606.22   3366.23      12.676
  
  
  ********************
  Link Flow Summary
  ********************
  
  -----------------------------------------------------------------------------
                                 Maximum  Time of Max   Maximum    Max/    Max/
                                  |Flow|   Occurrence   |Veloc|    Full    Full
  Link                 Type          LPS  days hr:min     m/sec    Flow   Depth
  -----------------------------------------------------------------------------
  1                    CONDUIT    549.54     0  02:35      2.82    0.19    0.30
  WS02003060WS02003069 CONDUIT    548.26     0  02:34      1.64    0.21    0.34
  WS02003066WSF200     CONDUIT    531.82     0  02:33      2.85    0.09    0.22
  WS02003067WS02003066 CONDUIT    531.76     0  02:33      1.20    0.17    0.41
  WS02003069WS02003072 CONDUIT    547.92     0  02:34      1.37    0.26    0.39
  WS02003072WS02003073 CONDUIT    547.93     0  02:34      1.43    1.18    0.37
  WS02004401WS02004402 CONDUIT    537.26     0  02:30      0.98    0.64    0.86
  WS02004402WS02004403 CONDUIT    536.63     0  02:28      0.97    0.77    0.88
  WS02004403WS02004404 CONDUIT    536.23     0  02:31      0.92    0.39    0.93
  WS02004404WS02004405 CONDUIT    536.02     0  02:31      1.08    5.25    0.96
  WS02004405WS02004406 CONDUIT    535.81     0  02:31      0.99    1.06    0.95
  WS02004406WS02004407 CONDUIT    535.28     0  02:31      1.04    0.24    0.63
  WS02004407WS02004409 CONDUIT    534.87     0  02:31      1.53    0.19    0.48
  WS02004409WS02004410 CONDUIT    533.24     0  02:31      1.00    0.69    0.67
  WS02004410WS02004411 CONDUIT    532.92     0  02:32      0.94    0.73    0.68
  WS02004411WS02004412 CONDUIT    532.05     0  02:32      0.92    0.76    0.69
  WS02004412WS02004413 CONDUIT    531.98     0  02:32      0.82    0.36    0.77
  WS02004413WS02003067 CONDUIT    531.68     0  02:33      1.10    0.23    0.59
  WS02006109WS02006110 CONDUIT    557.51     0  03:33      1.11    1.07    1.00
  WS02006110WS02006113 CONDUIT    571.58     0  03:14      1.38    0.52    0.79
  WS02006111WS02006112 CONDUIT    545.12     0  02:48      1.81    0.26    0.67
  WS02006112WS02006115 CONDUIT    553.78     0  03:15      0.82    0.33    0.87
  WS02006113WS02006111 CONDUIT    564.42     0  02:48      2.47    0.68    0.46
  WS02006115WS02006116 CONDUIT    541.09     0  02:30      1.00    0.69    0.76
  WS02006116WS02004401 CONDUIT    538.13     0  02:27      0.98    0.74    0.84
  WS02006228WS02006109 CONDUIT    555.08     0  03:33      1.10    2.43    1.00
  WS02006229WS02006228 CONDUIT    554.48     0  02:31      1.14    1.84    1.00
  WS02006230WS02006229 CONDUIT    554.12     0  02:31      1.44   12.33    1.00
  WS02006231WS02006230 CONDUIT    604.05     0  03:01      1.64    9.16    1.00
  WS02006232WS02006231 CONDUIT    604.13     0  02:57      1.57    1.27    1.00
  WS02006234WS02006232 CONDUIT    601.80     0  02:57      1.56    1.22    1.00
  WS02006235WS02006234 CONDUIT    589.95     0  02:57      1.53    6.22    1.00
  WS02006238WS02006235 CONDUIT    423.93     0  02:35      1.45    0.95    1.00
  WS02006239WS02006238 CONDUIT    423.80     0  02:35      1.18    1.36    1.00
  WS02006240WS02006239 CONDUIT    422.78     0  03:15      1.35    1.33    1.00
  WS02006242WS02006240 CONDUIT    420.97     0  03:15      1.17    1.67    1.00
  WS02006243WS02006242 CONDUIT    420.59     0  03:15      1.43    0.90    1.00
  WS02006245WS02006243 CONDUIT    420.93     0  03:15      1.45    1.25    1.00
  WS02006247WS02006245 CONDUIT    420.94     0  03:15      1.43    3.34    1.00
  WS02006248WS02006247 CONDUIT    420.67     0  02:25      1.44    0.92    1.00
  WS02006249WS02006248 CONDUIT    421.63     0  02:25      1.39    2.31    1.00
  WS02006251WS02006249 CONDUIT    465.23     0  05:35      2.10    1.34    1.00
  WS02006252WS02006251 CONDUIT    407.97     0  02:57     24.61    1.50    1.00
  WS02006256WS02006235 CONDUIT    288.91     0  00:00      4.23    3.06    1.00
  WSF200WS02003060     CONDUIT    532.17     0  02:31      2.06    0.12    0.28
  YS02001580YS02001583 CONDUIT    118.41     0  02:08      0.73    0.46    1.00
  YS02001583YS02001586 CONDUIT    169.68     0  02:08      0.75    0.26    1.00
  YS02001586YS02001590 CONDUIT    317.95     0  02:20      1.26    0.56    1.00
  YS02001590YS02001593 CONDUIT    317.97     0  02:23      1.12    2.00    1.00
  YS02001593YS02001596 CONDUIT    317.93     0  02:14      1.73    0.50    1.00
  YS02001596YS02001600 CONDUIT    318.02     0  02:19      1.23    0.62    1.00
  YS02001600YS02001601 CONDUIT    318.04     0  02:24      1.12    0.55    1.00
  YS02001601YS02001602 CONDUIT    525.24     0  02:07      1.86    1.90    1.00
  YS02001602YS02001605 CONDUIT    525.00     0  02:07      1.86   11.11    1.00
  YS02001605YS02001607 CONDUIT    524.43     0  02:07      1.85    2.88    1.00
  YS02001607YS02001610 CONDUIT    536.84     0  02:07      0.68    0.51    1.00
  YS02001610YS02001613 CONDUIT    543.46     0  02:07      0.69    0.63    1.00
  YS02001613YS02001616 CONDUIT    544.44     0  02:07      0.70    0.47    1.00
  YS02001616YS02001619 CONDUIT    502.27     0  02:07      0.67    0.87    1.00
  YS02001619YS02001622 CONDUIT    928.02     0  02:09      1.20    1.37    1.00
  YS02001622YS02001625 CONDUIT    931.39     0  02:07      1.19    0.50    1.00
  YS02001625YS02001629 CONDUIT    931.27     0  02:07      1.19    0.44    1.00
  YS02001629YS02163301 CONDUIT    928.05     0  02:09      1.18    1.14    1.00
  YS02001633YS02163601 CONDUIT   1376.84     0  02:09      1.75    1.45    1.00
  YS02001641YS02001644 CONDUIT   1374.98     0  02:09      1.75    4.44    1.00
  YS02001644YS02001647 CONDUIT   1784.68     0  02:09      2.31    1.05    1.00
  YS02001647YS02001649 CONDUIT   1791.58     0  02:10      2.34    0.95    1.00
  YS02001649YS02001757 CONDUIT   1962.24     0  02:10      2.50    1.19    1.00
  YS02001652YS02001649 CONDUIT    845.32     0  02:13      1.08    0.42    1.00
  YS02001655YS02001652 CONDUIT    844.10     0  02:13      1.33    0.41    1.00
  YS02001658YS02001655 CONDUIT    843.43     0  02:13      1.93    0.36    1.00
  YS02001661YS02001658 CONDUIT    842.35     0  02:13      2.32    0.33    1.00
  YS02001664YS02001661 CONDUIT    812.10     0  02:13      2.32    0.25    0.87
  YS02001745YS02001748 CONDUIT    581.05     0  02:12      2.20    0.22    1.00
  YS02001748YS02001751 CONDUIT    554.25     0  02:12      1.73    0.28    1.00
  YS02001751YS02001754 CONDUIT    555.83     0  02:12      1.48    0.27    1.00
  YS02001754YS02001757 CONDUIT    553.52     0  02:12      0.70    0.22    1.00
  YS02001757CaochengTiaoxuchi CONDUIT   3252.64     0  02:12      4.14    1.41    1.00
  YS02001759YS02001757 CONDUIT   1278.27     0  02:11      1.63    0.91    1.00
  YS02001762YS02001759 CONDUIT    745.06     0  02:11      0.95    0.86    1.00
  YS02001765YS02001762 CONDUIT    742.36     0  02:11      0.95    0.70    1.00
  YS02001767YS02001765 CONDUIT    739.81     0  02:11      0.94    0.93    1.00
  YS02001770YS02001767 CONDUIT    737.96     0  02:11      0.94    2.92    1.00
  YS02001774YS02001770 CONDUIT    448.62     0  02:10      0.57    0.29    1.00
  YS02001779YS02001774 CONDUIT    466.60     0  02:10      0.61    0.24    1.00
  YS02001783YS02001784 CONDUIT   1159.27     0  02:13      2.31    1.60    1.00
  YS02001784YS02001785 CONDUIT   1161.14     0  02:13      2.31    2.70    1.00
  YS02001786YS02001788 CONDUIT   1161.37     0  02:13      2.48    2.24    0.89
  YS02001788YS02001790 CONDUIT   1173.47     0  02:11      2.71    0.86    0.84
  YS02001790YS02001791 CONDUIT   1293.38     0  02:12      3.43    1.41    0.70
  YS02001791YS02001793 CONDUIT   1250.15     0  02:16      6.50    0.54    0.45
  YS02001793JiankangQianchi CONDUIT   1219.63     0  02:16      2.36    0.10    0.65
  YS02001882YS02001884 CONDUIT     51.19     0  02:09      0.09    0.06    1.00
  YS02001884YS02001887 CONDUIT     69.90     0  02:07      0.10    0.09    1.00
  YS02001887YS02001890 CONDUIT    665.40     0  02:13      0.85    1.14    1.00
  YS02001890YS02001895 CONDUIT    515.60     0  02:15      0.66    0.24    1.00
  YS02001895YS02001898 CONDUIT    515.56     0  02:15      0.66    0.89    1.00
  YS02001898YS02001901 CONDUIT    516.13     0  02:16      0.66    0.33    1.00
  YS02001901YS02001904 CONDUIT    515.95     0  02:15      0.66    0.80    1.00
  YS02001904YS02001907 CONDUIT    515.98     0  02:16      0.66    0.18    1.00
  YS02001907YS02006553 CONDUIT    797.24     0  02:25      0.89    0.94    1.00
  YS02001910YS02001907 CONDUIT   1105.52     0  02:15      1.41    0.62    1.00
  YS02001915YS02001910 CONDUIT   1105.20     0  02:15      1.41    0.55    1.00
  YS02001918YS02001915 CONDUIT    444.24     0  02:10      0.57    0.25    1.00
  YS02001920YS02001918 CONDUIT    442.30     0  02:12      0.67    0.43    1.00
  YS02001923YS02001920 CONDUIT    441.23     0  02:10      0.70    0.20    1.00
  YS02001926YS02001923 CONDUIT    410.88     0  02:11      0.97    0.59    1.00
  YS02001929YS02001926 CONDUIT    408.20     0  02:11      1.15    0.19    1.00
  YS02006553YS02006556 CONDUIT    797.32     0  02:25      1.02    0.68    1.00
  YS02006556YS02006558 CONDUIT    797.74     0  02:25      1.02    0.63    1.00
  YS02006558YS02006561 CONDUIT   1159.64     0  02:13      4.10    2.56    1.00
  YS02006561YS02001783 CONDUIT   1159.57     0  02:13      2.31    0.60    1.00
  YS02163301YS02001633 CONDUIT    927.32     0  02:09      1.18    0.87    1.00
  YS02163601YS02164001 CONDUIT   1376.26     0  02:09      1.75    1.22    1.00
  YS02164001YS02001641 CONDUIT   1375.08     0  02:09      1.75    1.88    1.00
  CC-R1                PUMP       683.00     0  00:00              1.00
  CC-R2                PUMP       683.00     0  00:00              1.00
  CC-S1                PUMP       200.00     0  00:00              1.00
  CC-S2                PUMP       200.00     0  00:00              1.00
  JK-R1                PUMP      1000.00     0  00:00              1.00
  JK-R2                PUMP      1000.00     0  00:00              1.00
  JK-S                 PUMP       300.00     0  00:00              1.00
  
  
  ***************************
  Flow Classification Summary
  ***************************
  
  -------------------------------------------------------------------------------------
                      Adjusted    ---------- Fraction of Time in Flow Class ---------- 
                       /Actual         Up    Down  Sub   Sup   Up    Down  Norm  Inlet 
  Conduit               Length    Dry  Dry   Dry   Crit  Crit  Crit  Crit  Ltd   Ctrl  
  -------------------------------------------------------------------------------------
  1                       1.00   0.00  0.00  0.00  0.00  1.00  0.00  0.00  0.43  0.00
  WS02003060WS02003069    1.00   0.00  0.00  0.00  0.97  0.03  0.00  0.00  0.72  0.00
  WS02003066WSF200        1.00   0.13  0.00  0.00  0.00  0.87  0.00  0.00  0.79  0.00
  WS02003067WS02003066    1.00   0.10  0.02  0.00  0.88  0.00  0.00  0.00  0.00  0.00
  WS02003069WS02003072    1.00   0.00  0.00  0.00  0.99  0.01  0.00  0.00  0.77  0.00
  WS02003072WS02003073    1.00   0.00  0.00  0.00  0.00  0.00  0.00  1.00  0.00  0.00
  WS02004401WS02004402    1.00   0.02  0.00  0.00  0.98  0.00  0.00  0.00  0.00  0.00
  WS02004402WS02004403    1.00   0.02  0.00  0.00  0.97  0.00  0.00  0.00  0.00  0.00
  WS02004403WS02004404    1.00   0.00  0.03  0.00  0.97  0.00  0.00  0.00  0.00  0.00
  WS02004404WS02004405    1.00   0.00  0.00  0.00  1.00  0.00  0.00  0.00  0.01  0.00
  WS02004405WS02004406    1.00   0.00  0.00  0.00  1.00  0.00  0.00  0.00  0.00  0.00
  WS02004406WS02004407    1.00   0.00  0.05  0.00  0.95  0.00  0.00  0.00  0.00  0.00
  WS02004407WS02004409    1.00   0.05  0.00  0.00  0.94  0.01  0.00  0.00  0.94  0.00
  WS02004409WS02004410    1.00   0.05  0.00  0.00  0.95  0.00  0.00  0.00  0.03  0.00
  WS02004410WS02004411    1.00   0.05  0.00  0.00  0.95  0.00  0.00  0.00  0.01  0.00
  WS02004411WS02004412    1.00   0.05  0.00  0.00  0.95  0.00  0.00  0.00  0.00  0.00
  WS02004412WS02004413    1.00   0.05  0.00  0.00  0.94  0.00  0.00  0.00  0.01  0.00
  WS02004413WS02003067    1.00   0.06  0.04  0.00  0.00  0.00  0.90  0.00  0.00  0.00
  WS02006109WS02006110    1.00   0.00  0.01  0.00  0.98  0.00  0.01  0.00  0.00  0.00
  WS02006110WS02006113    1.00   0.01  0.01  0.00  0.98  0.00  0.00  0.00  0.00  0.00
  WS02006111WS02006112    1.00   0.02  0.00  0.00  0.98  0.00  0.00  0.00  0.98  0.00
  WS02006112WS02006115    1.00   0.02  0.00  0.00  0.97  0.00  0.00  0.00  0.00  0.00
  WS02006113WS02006111    1.00   0.02  0.00  0.00  0.00  0.98  0.00  0.00  0.16  0.00
  WS02006115WS02006116    1.00   0.02  0.00  0.00  0.97  0.00  0.00  0.01  0.00  0.00
  WS02006116WS02004401    1.00   0.02  0.00  0.00  0.98  0.00  0.00  0.00  0.00  0.00
  WS02006228WS02006109    1.00   0.00  0.00  0.00  1.00  0.00  0.00  0.00  0.01  0.00
  WS02006229WS02006228    1.00   0.00  0.00  0.00  0.99  0.00  0.00  0.01  0.00  0.00
  WS02006230WS02006229    1.00   0.00  0.00  0.00  0.99  0.00  0.00  0.01  0.01  0.00
  WS02006231WS02006230    1.00   0.00  0.00  0.00  0.23  0.00  0.77  0.00  0.00  0.00
  WS02006232WS02006231    1.00   0.00  0.00  0.00  0.98  0.00  0.02  0.00  0.00  0.00
  WS02006234WS02006232    1.00   0.00  0.00  0.00  1.00  0.00  0.00  0.00  0.08  0.00
  WS02006235WS02006234    1.00   0.00  0.00  0.00  0.87  0.00  0.13  0.00  0.00  0.00
  WS02006238WS02006235    1.00   0.00  0.00  0.00  1.00  0.00  0.00  0.00  0.00  0.00
  WS02006239WS02006238    1.00   0.00  0.00  0.00  1.00  0.00  0.00  0.00  0.17  0.00
  WS02006240WS02006239    1.00   0.00  0.00  0.00  0.69  0.00  0.00  0.31  0.04  0.00
  WS02006242WS02006240    1.00   0.00  0.00  0.00  0.98  0.00  0.01  0.00  0.00  0.00
  WS02006243WS02006242    1.00   0.00  0.00  0.00  0.98  0.00  0.00  0.01  0.51  0.00
  WS02006245WS02006243    1.00   0.00  0.00  0.00  0.83  0.00  0.00  0.17  0.01  0.00
  WS02006247WS02006245    1.00   0.00  0.00  0.00  0.97  0.00  0.00  0.03  0.00  0.00
  WS02006248WS02006247    1.00   0.00  0.00  0.00  0.98  0.00  0.00  0.02  0.41  0.00
  WS02006249WS02006248    1.00   0.00  0.00  0.00  0.48  0.00  0.52  0.00  0.00  0.00
  WS02006251WS02006249    1.00   0.00  0.00  0.00  0.99  0.01  0.00  0.00  0.54  0.00
  WS02006252WS02006251    1.00   0.00  0.53  0.00  0.09  0.00  0.38  0.00  0.00  0.00
  WS02006256WS02006235    1.00   0.00  0.00  0.00  0.99  0.01  0.00  0.00  0.00  0.00
  WSF200WS02003060        1.00   0.00  0.13  0.00  0.22  0.65  0.00  0.00  0.51  0.00
  YS02001580YS02001583    1.00   0.26  0.57  0.00  0.17  0.00  0.00  0.00  0.66  0.00
  YS02001583YS02001586    1.00   0.43  0.35  0.00  0.22  0.00  0.00  0.00  0.66  0.00
  YS02001586YS02001590    1.00   0.13  0.00  0.00  0.41  0.05  0.00  0.42  0.37  0.00
  YS02001590YS02001593    1.00   0.13  0.01  0.00  0.09  0.00  0.78  0.00  0.00  0.00
  YS02001593YS02001596    1.00   0.14  0.00  0.00  0.10  0.01  0.00  0.75  0.02  0.00
  YS02001596YS02001600    1.00   0.14  0.00  0.00  0.16  0.01  0.00  0.68  0.05  0.00
  YS02001600YS02001601    1.00   0.13  0.01  0.00  0.86  0.00  0.00  0.00  0.63  0.00
  YS02001601YS02001602    1.00   0.13  0.01  0.00  0.86  0.00  0.00  0.00  0.00  0.00
  YS02001602YS02001605    1.00   0.14  0.00  0.00  0.86  0.00  0.00  0.00  0.00  0.00
  YS02001605YS02001607    1.00   0.14  0.00  0.00  0.86  0.00  0.00  0.00  0.00  0.00
  YS02001607YS02001610    1.00   0.13  0.01  0.00  0.86  0.00  0.00  0.00  0.02  0.00
  YS02001610YS02001613    1.00   0.13  0.00  0.00  0.87  0.00  0.00  0.00  0.01  0.00
  YS02001613YS02001616    1.00   0.13  0.00  0.00  0.87  0.00  0.00  0.00  0.01  0.00
  YS02001616YS02001619    1.00   0.13  0.00  0.00  0.87  0.00  0.00  0.00  0.00  0.00
  YS02001619YS02001622    1.00   0.13  0.00  0.00  0.87  0.00  0.00  0.00  0.30  0.00
  YS02001622YS02001625    1.00   0.13  0.00  0.00  0.87  0.00  0.00  0.00  0.06  0.00
  YS02001625YS02001629    1.00   0.13  0.06  0.00  0.12  0.00  0.68  0.00  0.00  0.00
  YS02001629YS02163301    1.00   0.17  0.01  0.00  0.82  0.00  0.00  0.00  0.00  0.00
  YS02001633YS02163601    1.00   0.00  0.01  0.00  0.99  0.00  0.00  0.00  0.15  0.00
  YS02001641YS02001644    1.00   0.00  0.01  0.00  0.99  0.00  0.00  0.00  0.00  0.00
  YS02001644YS02001647    1.00   0.00  0.19  0.00  0.81  0.00  0.00  0.00  0.00  0.00
  YS02001647YS02001649    1.00   0.00  0.19  0.00  0.52  0.29  0.00  0.00  0.57  0.00
  YS02001649YS02001757    1.00   0.00  0.00  0.00  0.85  0.15  0.00  0.00  0.45  0.00
  YS02001652YS02001649    1.00   0.00  0.00  0.00  0.95  0.05  0.00  0.00  0.78  0.00
  YS02001655YS02001652    1.00   0.00  0.00  0.00  0.15  0.01  0.00  0.84  0.05  0.00
  YS02001658YS02001655    1.00   0.00  0.15  0.00  0.63  0.22  0.00  0.00  0.72  0.00
  YS02001661YS02001658    1.00   0.15  0.00  0.00  0.48  0.38  0.00  0.00  0.71  0.00
  YS02001664YS02001661    1.00   0.13  0.00  0.00  0.79  0.09  0.00  0.00  0.86  0.00
  YS02001745YS02001748    1.00   0.00  0.00  0.00  0.07  0.01  0.00  0.93  0.04  0.00
  YS02001748YS02001751    1.00   0.00  0.00  0.00  0.82  0.18  0.00  0.00  0.78  0.00
  YS02001751YS02001754    1.00   0.00  0.00  0.00  0.13  0.00  0.00  0.86  0.04  0.00
  YS02001754YS02001757    1.00   0.00  0.00  0.00  1.00  0.00  0.00  0.00  0.85  0.00
  YS02001757CaochengTiaoxuchi    1.00   0.00  0.00  0.00  1.00  0.00  0.00  0.00  0.68  0.00
  YS02001759YS02001757    1.00   0.00  0.00  0.00  1.00  0.00  0.00  0.00  0.54  0.00
  YS02001762YS02001759    1.00   0.00  0.00  0.00  1.00  0.00  0.00  0.00  0.07  0.00
  YS02001765YS02001762    1.00   0.00  0.00  0.00  1.00  0.00  0.00  0.00  0.70  0.00
  YS02001767YS02001765    1.00   0.00  0.00  0.00  1.00  0.00  0.00  0.00  0.01  0.00
  YS02001770YS02001767    1.00   0.00  0.00  0.00  1.00  0.00  0.00  0.00  0.00  0.00
  YS02001774YS02001770    1.00   0.00  0.14  0.00  0.69  0.00  0.17  0.00  0.04  0.00
  YS02001779YS02001774    1.00   0.00  0.00  0.00  1.00  0.00  0.00  0.00  0.80  0.00
  YS02001783YS02001784    1.00   0.00  0.20  0.00  0.80  0.00  0.00  0.00  0.56  0.00
  YS02001784YS02001785    1.00   0.00  0.00  0.00  1.00  0.00  0.00  0.00  0.19  0.00
  YS02001786YS02001788    1.00   0.00  0.00  0.00  0.80  0.20  0.00  0.00  0.00  0.00
  YS02001788YS02001790    1.00   0.00  0.00  0.00  0.22  0.78  0.00  0.00  0.83  0.00
  YS02001790YS02001791    1.00   0.00  0.00  0.00  0.01  0.99  0.00  0.00  0.15  0.00
  YS02001791YS02001793    1.00   0.00  0.00  0.00  0.00  1.00  0.00  0.00  0.01  0.00
  YS02001793JiankangQianchi    1.00   0.00  0.00  0.00  0.99  0.00  0.00  0.00  0.96  0.00
  YS02001882YS02001884    1.00   0.16  0.01  0.00  0.83  0.00  0.00  0.00  0.00  0.00
  YS02001884YS02001887    1.00   0.06  0.05  0.00  0.89  0.00  0.00  0.00  0.00  0.00
  YS02001887YS02001890    1.00   0.00  0.00  0.00  0.97  0.00  0.03  0.00  0.00  0.00
  YS02001890YS02001895    1.00   0.00  0.18  0.00  0.82  0.00  0.00  0.00  0.00  0.00
  YS02001895YS02001898    1.00   0.18  0.00  0.00  0.80  0.00  0.02  0.00  0.00  0.00
  YS02001898YS02001901    1.00   0.18  0.00  0.00  0.82  0.00  0.00  0.00  0.01  0.00
  YS02001901YS02001904    1.00   0.18  0.00  0.00  0.82  0.00  0.00  0.00  0.00  0.00
  YS02001904YS02001907    1.00   0.00  0.17  0.00  0.82  0.00  0.00  0.00  0.00  0.00
  YS02001907YS02006553    1.00   0.00  0.02  0.00  0.98  0.00  0.00  0.00  0.00  0.00
  YS02001910YS02001907    1.00   0.00  0.00  0.00  0.97  0.00  0.00  0.03  0.12  0.00
  YS02001915YS02001910    1.00   0.00  0.00  0.00  0.96  0.04  0.00  0.00  0.18  0.00
  YS02001918YS02001915    1.00   0.00  0.01  0.00  0.98  0.02  0.00  0.00  0.78  0.00
  YS02001920YS02001918    1.00   0.00  0.01  0.00  0.99  0.00  0.00  0.00  0.00  0.00
  YS02001923YS02001920    1.00   0.00  0.00  0.00  1.00  0.00  0.00  0.00  0.94  0.00
  YS02001926YS02001923    1.00   0.00  0.07  0.00  0.04  0.00  0.88  0.00  0.00  0.00
  YS02001929YS02001926    1.00   0.00  0.13  0.00  0.87  0.00  0.00  0.00  0.84  0.00
  YS02006553YS02006556    1.00   0.01  0.00  0.00  0.99  0.00  0.00  0.00  0.03  0.00
  YS02006556YS02006558    1.00   0.00  0.00  0.00  1.00  0.00  0.00  0.00  0.00  0.00
  YS02006558YS02006561    1.00   0.20  0.00  0.00  0.04  0.76  0.00  0.00  0.19  0.00
  YS02006561YS02001783    1.00   0.20  0.00  0.00  0.07  0.74  0.00  0.00  0.70  0.00
  YS02163301YS02001633    1.00   0.00  0.16  0.00  0.84  0.00  0.00  0.00  0.00  0.00
  YS02163601YS02164001    1.00   0.00  0.08  0.00  0.92  0.00  0.00  0.00  0.00  0.00
  YS02164001YS02001641    1.00   0.01  0.07  0.00  0.92  0.00  0.00  0.00  0.06  0.00
  
  
  *************************
  Conduit Surcharge Summary
  *************************
  
  ----------------------------------------------------------------------------
                                                           Hours        Hours 
                         --------- Hours Full --------   Above Full   Capacity
  Conduit                Both Ends  Upstream  Dnstream   Normal Flow   Limited
  ----------------------------------------------------------------------------
  WS02003072WS02003073        0.01      0.01      0.01      1.08         0.01
  WS02004404WS02004405        0.01      0.01      0.01      3.45         0.01
  WS02004405WS02004406        0.01      0.01      0.01      0.42         0.01
  WS02006109WS02006110        0.48      0.48      1.70      0.62         0.01
  WS02006110WS02006113        0.01      0.01      1.68      0.01         0.01
  WS02006111WS02006112        0.01      0.01      1.90      0.01         0.01
  WS02006112WS02006115        0.01      0.01      0.53      0.01         0.01
  WS02006228WS02006109        1.67      1.70      1.67      2.15         1.66
  WS02006229WS02006228        1.66      1.67      1.66      1.85         1.65
  WS02006230WS02006229        1.76      1.83      1.76      4.32         1.76
  WS02006231WS02006230        0.49      0.49      0.72      3.84         0.01
  WS02006232WS02006231        0.65      0.65      1.71      0.73         0.01
  WS02006234WS02006232        1.60      1.60      1.71      0.71         0.70
  WS02006235WS02006234        1.05      1.06      1.61      3.54         0.02
  WS02006238WS02006235        1.64      1.64      1.71      0.01         0.01
  WS02006239WS02006238        1.66      1.68      1.67      1.74         1.47
  WS02006240WS02006239        1.64      1.66      1.64      1.76         1.41
  WS02006242WS02006240        1.66      1.66      1.69      1.92         0.01
  WS02006243WS02006242        1.66      1.66      1.67      0.01         0.06
  WS02006245WS02006243        1.65      1.65      1.65      1.27         1.14
  WS02006247WS02006245        1.65      1.65      1.65      3.25         1.64
  WS02006248WS02006247        1.64      1.64      1.65      0.01         0.06
  WS02006249WS02006248        1.64      1.64      1.64      3.21         0.01
  WS02006251WS02006249        1.64      1.64      1.64      1.89         1.56
  WS02006252WS02006251        1.96      1.96      1.96      1.96         0.01
  WS02006256WS02006235        3.63      3.68      6.58      1.11         0.01
  YS02001580YS02001583        0.41      0.41      0.45      0.01         0.01
  YS02001583YS02001586        0.41      0.41      0.53      0.01         0.01
  YS02001586YS02001590        0.54      0.54      0.59      0.01         0.01
  YS02001590YS02001593        0.59      0.59      0.61      0.62         0.01
  YS02001593YS02001596        0.60      0.60      0.69      0.01         0.01
  YS02001596YS02001600        0.73      0.73      0.82      0.01         0.01
  YS02001600YS02001601        0.87      0.87      1.15      0.01         0.01
  YS02001601YS02001602        1.04      1.04      1.18      0.81         0.01
  YS02001602YS02001605        0.98      0.98      1.04      2.02         0.01
  YS02001605YS02001607        0.94      0.98      0.94      1.11         0.94
  YS02001607YS02001610        0.57      0.57      0.59      0.01         0.01
  YS02001610YS02001613        0.56      0.56      0.59      0.01         0.01
  YS02001613YS02001616        0.53      0.53      0.56      0.01         0.01
  YS02001616YS02001619        0.52      0.52      0.53      0.01         0.01
  YS02001619YS02001622        0.51      0.52      0.51      0.60         0.49
  YS02001622YS02001625        0.51      0.51      0.67      0.01         0.01
  YS02001625YS02001629        0.47      0.47      0.67      0.01         0.01
  YS02001629YS02163301        0.66      0.66      0.67      0.12         0.13
  YS02001633YS02163601        0.69      0.69      0.72      0.29         0.27
  YS02001641YS02001644        0.60      0.64      0.60      1.22         0.59
  YS02001644YS02001647        0.43      0.43      0.60      0.03         0.01
  YS02001647YS02001649        0.43      0.43      0.53      0.01         0.01
  YS02001649YS02001757        0.53      0.53      0.59      0.06         0.04
  YS02001652YS02001649        0.39      0.39      0.53      0.01         0.01
  YS02001655YS02001652        0.26      0.26      0.37      0.01         0.01
  YS02001658YS02001655        0.12      0.12      0.26      0.01         0.01
  YS02001661YS02001658        0.01      0.01      0.12      0.01         0.01
  YS02001664YS02001661        0.01      0.01      0.02      0.01         0.01
  YS02001745YS02001748        0.01      0.01      0.07      0.01         0.01
  YS02001748YS02001751        0.11      0.11      0.17      0.01         0.01
  YS02001751YS02001754        0.17      0.17      0.30      0.01         0.01
  YS02001754YS02001757        0.34      0.34      0.59      0.01         0.01
  YS02001757CaochengTiaoxuchi        0.59      0.59      1.66      0.24         0.24
  YS02001759YS02001757        0.50      0.50      0.59      0.01         0.01
  YS02001762YS02001759        0.47      0.47      0.50      0.01         0.02
  YS02001765YS02001762        0.43      0.43      0.47      0.01         0.01
  YS02001767YS02001765        0.41      0.41      0.43      0.01         0.02
  YS02001770YS02001767        0.40      0.40      0.41      0.39         0.29
  YS02001774YS02001770        0.39      0.39      0.46      0.01         0.01
  YS02001779YS02001774        0.30      0.30      0.46      0.01         0.01
  YS02001783YS02001784        0.37      0.39      0.37      0.52         0.37
  YS02001784YS02001785        0.28      0.37      0.28      0.70         0.28
  YS02001786YS02001788        0.01      0.28      0.01      0.60         0.01
  YS02001790YS02001791        0.01      0.01      0.01      0.36         0.01
  YS02001793JiankangQianchi        0.01      0.01      7.33      0.01         0.01
  YS02001882YS02001884        0.35      0.35      0.36      0.01         0.01
  YS02001884YS02001887        0.38      0.38      0.39      0.01         0.01
  YS02001887YS02001890        0.40      0.40      0.41      0.05         0.01
  YS02001890YS02001895        0.34      0.34      0.42      0.01         0.01
  YS02001895YS02001898        0.33      0.33      0.34      0.01         0.01
  YS02001898YS02001901        0.34      0.34      0.37      0.01         0.01
  YS02001901YS02001904        0.37      0.37      0.37      0.01         0.01
  YS02001904YS02001907        0.37      0.37      0.59      0.01         0.01
  YS02001907YS02006553        0.71      0.71      0.77      0.01         0.01
  YS02001910YS02001907        0.42      0.42      0.58      0.01         0.01
  YS02001915YS02001910        0.35      0.35      0.42      0.01         0.01
  YS02001918YS02001915        0.27      0.27      0.35      0.01         0.01
  YS02001920YS02001918        0.27      0.27      0.29      0.01         0.01
  YS02001923YS02001920        0.23      0.23      0.29      0.01         0.01
  YS02001926YS02001923        0.01      0.01      0.03      0.01         0.01
  YS02001929YS02001926        0.01      0.01      0.03      0.01         0.01
  YS02006553YS02006556        0.50      0.50      0.59      0.01         0.01
  YS02006556YS02006558        0.54      0.54      0.60      0.01         0.01
  YS02006558YS02006561        0.30      0.49      0.30      0.67         0.30
  YS02006561YS02001783        0.24      0.24      0.39      0.01         0.01
  YS02163301YS02001633        0.67      0.67      0.70      0.01         0.01
  YS02163601YS02164001        0.64      0.64      0.72      0.06         0.01
  YS02164001YS02001641        0.64      0.64      0.64      0.58         0.49
  
  
  ***************
  Pumping Summary
  ***************
  
  ---------------------------------------------------------------------------------------------------------
                                                  Min       Avg       Max     Total     Power    % Time Off
                        Percent   Number of      Flow      Flow      Flow    Volume     Usage    Pump Curve
  Pump                 Utilized   Start-Ups       LPS       LPS       LPS  10^6 ltr     Kw-hr    Low   High
  ---------------------------------------------------------------------------------------------------------
  CC-R1                   14.14           4      0.00    683.00    683.00     2.782     52.03    0.0    8.1
  CC-R2                   13.13           7      0.00    683.00    683.00     2.583     47.35    0.0   32.1
  CC-S1                   41.62           9      0.00    200.00    200.00     2.397     14.24    0.0    0.0
  CC-S2                   24.47           6      0.00    200.00    200.00     1.410      8.24    0.0    0.0
  JK-R1                    6.41          11      0.00   1000.00   1000.00     1.846     21.62    0.0    0.0
  JK-R2                    1.16           3      0.00   1000.00   1000.00     0.335      2.50    0.0    0.0
  JK-S                    13.57          26      0.00    300.00    300.00     1.173     15.92    0.0    0.0
  

  Analysis begun on:  Mon Feb 24 09:49:09 2025
  Analysis ended on:  Mon Feb 24 09:49:10 2025
  Total elapsed time: 00:00:01