
  EPA STORM WATER MANAGEMENT MODEL - VERSION 5.2 (Build 5.2.4)
  PYSWMM TOOLKIT API - VERSION v1.0 (2023-11-27)
  ------------------------------------------------------------

  WARNING 04: minimum elevation drop used for Conduit WS02004404WS02004405
  WARNING 03: negative offset ignored for Link YS02001904YS02001907
  
  ****************
  Analysis Options
  ****************
  Flow Units ............... LPS
  Process Models:
    Rainfall/Runoff ........ YES
    RDII ................... NO
    Snowmelt ............... NO
    Groundwater ............ NO
    Flow Routing ........... YES
    Ponding Allowed ........ NO
    Water Quality .......... NO
  Infiltration Method ...... HORTON
  Flow Routing Method ...... DYNWAVE
  Surcharge Method ......... EXTRAN
  Starting Date ............ 08/28/2015 08:00:00
  Ending Date .............. 08/28/2015 16:00:00
  Antecedent Dry Days ...... 8.0
  Report Time Step ......... 00:01:00
  Wet Time Step ............ 00:01:00
  Dry Time Step ............ 00:01:00
  Routing Time Step ........ 30.00 sec
  Variable Time Step ....... YES
  Maximum Trials ........... 8
  Number of Threads ........ 4
  Head Tolerance ........... 0.001500 m
  
  
  **************************        Volume         Depth
  Runoff Quantity Continuity     hectare-m            mm
  **************************     ---------       -------
  Total Precipitation ......         2.238        67.478
  Evaporation Loss .........         0.000         0.000
  Infiltration Loss ........         0.100         3.014
  Surface Runoff ...........         2.106        63.484
  Final Storage ............         0.033         0.995
  Continuity Error (%) .....        -0.021
  
  
  **************************        Volume        Volume
  Flow Routing Continuity        hectare-m      10^6 ltr
  **************************     ---------     ---------
  Dry Weather Inflow .......         0.025         0.251
  Wet Weather Inflow .......         2.106        21.057
  Groundwater Inflow .......         0.000         0.000
  RDII Inflow ..............         0.000         0.000
  External Inflow ..........         0.083         0.834
  External Outflow .........         1.574        15.737
  Flooding Loss ............         0.708         7.079
  Evaporation Loss .........         0.000         0.000
  Exfiltration Loss ........         0.000         0.000
  Initial Stored Volume ....         0.243         2.431
  Final Stored Volume ......         0.182         1.825
  Continuity Error (%) .....        -0.278
  
  
  *************************
  Highest Continuity Errors
  *************************
  Node YS02001884 (5.14%)
  Node YS02001583 (-4.10%)
  Node WS02006256 (-1.26%)
  
  
  ***************************
  Time-Step Critical Elements
  ***************************
  Link WS02006252WS02006251 (47.54%)
  Link WS02006238WS02006235 (13.57%)
  Link WS02004404WS02004405 (9.60%)
  Link WS02003066WSF200 (7.93%)
  Link YS02001791YS02001793 (7.46%)
  
  
  ********************************
  Highest Flow Instability Indexes
  ********************************
  Link WS02006113WS02006111 (43)
  Link WS02006111WS02006112 (21)
  Link WS02006252WS02006251 (15)
  Link WS02006238WS02006235 (14)
  Link WS02006256WS02006235 (13)
  
  
  *********************************
  Most Frequent Nonconverging Nodes
  *********************************
  Node CC-1 (12.37%)
  Node CC-2 (12.37%)
  Node JK-1 (12.37%)
  Node JK-2 (12.37%)
  Node WSC (12.37%)
  
  
  *************************
  Routing Time Step Summary
  *************************
  Minimum Time Step           :     0.00 sec
  Average Time Step           :     1.89 sec
  Maximum Time Step           :     7.04 sec
  % of Time in Steady State   :     0.00
  Average Iterations per Step :     3.09
  % of Steps Not Converging   :    12.37
  Time Step Frequencies       :
     30.000 - 13.228 sec      :     0.00 %
     13.228 -  5.833 sec      :     4.89 %
      5.833 -  2.572 sec      :    21.59 %
      2.572 -  1.134 sec      :    20.57 %
      1.134 -  0.500 sec      :    52.95 %
  
  
  ***************************
  Subcatchment Runoff Summary
  ***************************
  
  ------------------------------------------------------------------------------------------------------------------------------
                            Total      Total      Total      Total     Imperv       Perv      Total       Total     Peak  Runoff
                           Precip      Runon       Evap      Infil     Runoff     Runoff     Runoff      Runoff   Runoff   Coeff
  Subcatchment                 mm         mm         mm         mm         mm         mm         mm    10^6 ltr      LPS
  ------------------------------------------------------------------------------------------------------------------------------
  sub60                     67.48       0.00       0.00       1.81      58.18       6.29      64.47        0.85   569.62   0.955
  sub61                     67.48       0.00       0.00       2.63      54.88       8.85      63.72        1.17   790.33   0.944
  sub62                     67.48       0.00       0.00       1.21      60.79       4.19      64.99        1.78  1115.10   0.963
  sub63                     67.48       0.00       0.00       4.84      46.94      14.73      61.67        1.40   890.37   0.914
  sub64                     67.48       0.00       0.00       2.45      56.15       7.68      63.83        1.53   906.48   0.946
  sub65                     67.48       0.00       0.00       2.12      57.45       6.66      64.11        1.76  1015.99   0.950
  sub66                     67.48       0.00       0.00       6.00      46.83      13.57      60.41        2.82  1333.55   0.895
  sub67                     67.48       0.00       0.00       1.16      60.84       4.24      65.07        1.21   854.20   0.964
  sub68                     67.48       0.00       0.00       2.18      56.85       7.27      64.12        1.76  1143.87   0.950
  sub69                     67.48       0.00       0.00       1.94      57.25       8.19      65.43        2.42  1352.38   0.970
  sub70                     67.48       0.00       0.00       6.47      44.37      16.47      60.84        1.76   749.82   0.902
  sub71                     67.48       0.00       0.00       1.24      60.75       4.16      64.91        1.70   982.11   0.962
  sub72                     67.48       0.00       0.00       1.10      61.35       3.62      64.98        0.89   477.00   0.963
  
  
  ******************
  Node Depth Summary
  ******************
  
  ---------------------------------------------------------------------------------
                                 Average  Maximum  Maximum  Time of Max    Reported
                                   Depth    Depth      HGL   Occurrence   Max Depth
  Node                 Type       Meters   Meters   Meters  days hr:min      Meters
  ---------------------------------------------------------------------------------
  WS02003060           JUNCTION     0.23     0.38     5.32     0  03:08        0.38
  WS02003066           JUNCTION     0.19     0.30     5.85     0  03:07        0.30
  WS02003067           JUNCTION     0.50     0.70     6.02     0  03:07        0.70
  WS02003069           JUNCTION     0.26     0.43     5.01     0  03:08        0.43
  WS02003072           JUNCTION     0.32     0.50     4.87     0  03:09        0.50
  WS02003073           JUNCTION     0.18     0.30     4.36     0  03:09        0.30
  WS02004401           JUNCTION     0.58     0.85     6.85     0  03:04        0.85
  WS02004402           JUNCTION     0.61     0.88     6.84     0  03:05        0.88
  WS02004403           JUNCTION     0.64     0.89     6.82     0  03:05        0.89
  WS02004404           JUNCTION     0.71     0.96     6.81     0  03:05        0.96
  WS02004405           JUNCTION     0.71     0.96     6.81     0  03:05        0.96
  WS02004406           JUNCTION     0.72     0.96     6.79     0  03:05        0.96
  WS02004407           JUNCTION     0.17     0.30     6.61     0  03:05        0.30
  WS02004409           JUNCTION     0.39     0.67     6.44     0  03:06        0.67
  WS02004410           JUNCTION     0.41     0.68     6.40     0  03:06        0.68
  WS02004411           JUNCTION     0.43     0.69     6.37     0  03:06        0.69
  WS02004412           JUNCTION     0.45     0.70     6.34     0  03:06        0.70
  WS02004413           JUNCTION     0.62     0.86     6.33     0  03:07        0.86
  WS02006109           JUNCTION     0.64     1.25     7.86     0  02:27        0.98
  WS02006110           JUNCTION     0.64     1.38     7.96     0  02:27        0.93
  WS02006111           JUNCTION     0.17     0.29     6.99     0  02:34        0.29
  WS02006112           JUNCTION     0.73     1.09     6.97     0  02:32        1.06
  WS02006113           JUNCTION     0.26     0.46     7.35     0  03:08        0.46
  WS02006115           JUNCTION     0.46     0.75     6.89     0  03:05        0.75
  WS02006116           JUNCTION     0.55     0.83     6.87     0  03:04        0.83
  WS02006228           JUNCTION     0.63     1.27     7.92     0  02:47        1.05
  WS02006229           JUNCTION     0.60     1.32     8.01     0  02:47        1.07
  WS02006230           JUNCTION     0.60     1.56     8.31     0  02:47        1.20
  WS02006231           JUNCTION     0.41     1.71     8.84     0  03:06        1.71
  WS02006232           JUNCTION     0.55     2.18     9.22     0  03:06        2.18
  WS02006234           JUNCTION     0.47     1.60     8.76     0  03:06        1.60
  WS02006235           JUNCTION     0.51     1.49     8.66     0  02:15        1.30
  WS02006238           JUNCTION     0.53     1.54     8.68     0  02:15        1.34
  WS02006239           JUNCTION     0.50     1.49     8.70     0  02:15        1.32
  WS02006240           JUNCTION     0.46     1.46     8.75     0  02:15        1.27
  WS02006242           JUNCTION     0.53     1.49     8.76     0  02:15        1.33
  WS02006243           JUNCTION     0.44     1.34     8.76     0  02:15        1.22
  WS02006245           JUNCTION     0.45     1.27     8.76     0  02:15        1.18
  WS02006247           JUNCTION     0.47     1.24     8.74     0  02:15        1.17
  WS02006248           JUNCTION     0.43     1.10     8.69     0  02:00        1.10
  WS02006249           JUNCTION     0.47     1.09     8.69     0  01:59        1.09
  WS02006251           JUNCTION     0.46     1.37     9.04     0  01:59        1.28
  WS02006252           JUNCTION     0.34     1.50     9.74     0  00:00        0.84
  WS02006256           JUNCTION     0.98     2.35     9.28     0  00:00        2.35
  WSF200               JUNCTION     0.17     0.29     5.52     0  03:07        0.29
  YS02001580           JUNCTION     0.09     1.05     9.59     0  01:53        0.77
  YS02001583           JUNCTION     0.12     1.14     9.64     0  01:53        0.81
  YS02001586           JUNCTION     0.18     1.13     9.30     0  01:53        1.13
  YS02001590           JUNCTION     0.28     1.40     9.26     0  01:53        1.37
  YS02001593           JUNCTION     0.21     1.33     9.20     0  01:53        1.29
  YS02001596           JUNCTION     0.29     1.69     9.11     0  01:53        1.65
  YS02001600           JUNCTION     0.34     1.87     9.00     0  01:53        1.86
  YS02001601           JUNCTION     0.53     2.06     8.90     0  01:52        2.06
  YS02001602           JUNCTION     0.44     1.87     8.77     0  01:52        1.87
  YS02001605           JUNCTION     0.41     1.78     8.68     0  01:52        1.78
  YS02001607           JUNCTION     0.41     1.68     8.53     0  01:53        1.65
  YS02001610           JUNCTION     0.46     1.68     8.48     0  01:52        1.68
  YS02001613           JUNCTION     0.42     1.67     8.51     0  01:53        1.66
  YS02001616           JUNCTION     0.35     1.61     8.52     0  01:52        1.61
  YS02001619           JUNCTION     0.32     1.61     8.54     0  01:52        1.61
  YS02001622           JUNCTION     0.31     1.62     8.52     0  01:52        1.58
  YS02001625           JUNCTION     0.59     1.78     8.38     0  01:53        1.78
  YS02001629           JUNCTION     0.43     1.85     8.40     0  01:53        1.85
  YS02001633           JUNCTION     0.51     2.01     8.47     0  02:00        2.01
  YS02001641           JUNCTION     0.50     1.95     8.39     0  02:00        1.94
  YS02001644           JUNCTION     0.49     1.92     8.35     0  01:57        1.92
  YS02001647           JUNCTION     0.28     1.81     8.42     0  01:57        1.75
  YS02001649           JUNCTION     0.32     2.05     8.44     0  01:57        1.98
  YS02001652           JUNCTION     0.22     2.00     8.59     0  01:57        1.82
  YS02001655           JUNCTION     0.17     2.01     8.86     0  01:57        1.61
  YS02001658           JUNCTION     0.12     2.04     9.18     0  01:57        1.36
  YS02001661           JUNCTION     0.15     1.42     8.82     0  01:58        1.13
  YS02001664           JUNCTION     0.05     0.59     8.52     0  01:58        0.57
  YS02001745           JUNCTION     0.06     0.83     8.34     0  02:00        0.81
  YS02001748           JUNCTION     0.12     1.74     8.82     0  01:58        1.24
  YS02001751           JUNCTION     0.15     1.72     8.60     0  01:58        1.42
  YS02001754           JUNCTION     0.20     1.75     8.36     0  01:58        1.68
  YS02001757           JUNCTION     0.36     2.02     8.28     0  02:01        2.02
  YS02001759           JUNCTION     0.30     2.02     8.38     0  02:01        2.02
  YS02001762           JUNCTION     0.28     2.00     8.40     0  02:00        1.99
  YS02001765           JUNCTION     0.27     1.96     8.41     0  02:00        1.95
  YS02001767           JUNCTION     0.26     1.94     8.42     0  02:00        1.93
  YS02001770           JUNCTION     0.27     1.95     8.44     0  01:56        1.95
  YS02001774           JUNCTION     0.34     2.01     8.43     0  02:00        2.01
  YS02001779           JUNCTION     0.18     1.68     8.37     0  01:56        1.68
  YS02001783           JUNCTION     0.22     1.32     7.46     0  01:56        1.24
  YS02001784           JUNCTION     0.23     1.18     7.25     0  01:56        1.12
  YS02001786           JUNCTION     0.20     0.92     6.95     0  01:56        0.87
  YS02001788           JUNCTION     0.14     0.62     6.60     0  01:58        0.62
  YS02001790           JUNCTION     0.17     0.73     6.37     0  02:02        0.72
  YS02001791           JUNCTION     0.11     0.44     5.91     0  01:59        0.43
  YS02001793           JUNCTION     0.06     0.30     5.13     0  02:01        0.28
  YS02001882           JUNCTION     0.28     1.83     8.55     0  01:55        1.66
  YS02001884           JUNCTION     0.38     1.93     8.55     0  01:55        1.76
  YS02001887           JUNCTION     0.45     1.95     8.49     0  01:55        1.85
  YS02001890           JUNCTION     0.48     1.81     8.32     0  01:55        1.81
  YS02001895           JUNCTION     0.25     1.57     8.31     0  01:56        1.56
  YS02001898           JUNCTION     0.26     1.57     8.30     0  01:56        1.56
  YS02001901           JUNCTION     0.38     1.68     8.29     0  01:56        1.67
  YS02001904           JUNCTION     0.36     1.65     8.28     0  02:09        1.65
  YS02001907           JUNCTION     0.68     1.96     8.25     0  01:56        1.96
  YS02001910           JUNCTION     0.48     1.98     8.49     0  01:55        1.92
  YS02001915           JUNCTION     0.28     2.00     8.72     0  01:55        1.85
  YS02001918           JUNCTION     0.15     1.81     8.88     0  01:57        1.54
  YS02001920           JUNCTION     0.23     2.14     9.15     0  01:57        1.59
  YS02001923           JUNCTION     0.11     2.03     9.29     0  01:57        1.30
  YS02001926           JUNCTION     0.15     1.90     9.35     0  01:57        1.12
  YS02001929           JUNCTION     0.08     1.78     9.47     0  01:57        0.88
  YS02006553           JUNCTION     0.69     1.99     8.27     0  02:00        1.99
  YS02006556           JUNCTION     0.66     1.98     8.29     0  02:00        1.98
  YS02006558           JUNCTION     0.70     2.04     8.31     0  02:00        2.04
  YS02006561           JUNCTION     0.14     0.98     7.64     0  01:56        0.90
  YS02163301           JUNCTION     0.45     1.92     8.43     0  01:57        1.91
  YS02163601           JUNCTION     0.55     2.03     8.43     0  01:57        2.02
  YS02164001           JUNCTION     0.48     1.95     8.41     0  01:57        1.95
  CC-1                 OUTFALL      0.00     0.00     0.00     0  00:00        0.00
  CC-2                 OUTFALL      0.00     0.00     0.00     0  00:00        0.00
  JK-1                 OUTFALL      0.00     0.00     0.00     0  00:00        0.00
  JK-2                 OUTFALL      0.00     0.00     0.00     0  00:00        0.00
  WSC                  OUTFALL      0.18     0.30     0.97     0  03:09        0.30
  CC-storage           STORAGE      0.93     1.75     7.25     0  02:31        1.75
  JK-storage           STORAGE      2.75     4.24     5.04     0  02:15        4.20
  
  
  *******************
  Node Inflow Summary
  *******************
  
  -------------------------------------------------------------------------------------------------
                                  Maximum  Maximum                  Lateral       Total        Flow
                                  Lateral    Total  Time of Max      Inflow      Inflow     Balance
                                   Inflow   Inflow   Occurrence      Volume      Volume       Error
  Node                 Type           LPS      LPS  days hr:min    10^6 ltr    10^6 ltr     Percent
  -------------------------------------------------------------------------------------------------
  WS02003060           JUNCTION     16.53   552.73     0  03:08       0.476        5.69       0.045
  WS02003066           JUNCTION      0.00   536.03     0  03:07           0        5.21       0.030
  WS02003067           JUNCTION      0.00   536.00     0  03:07           0        5.22       0.084
  WS02003069           JUNCTION      0.32   552.88     0  03:08     0.00922        5.69       0.080
  WS02003072           JUNCTION      0.00   552.70     0  03:09           0        5.69       0.138
  WS02003073           JUNCTION      1.82   554.45     0  03:09      0.0524        5.73       0.116
  WS02004401           JUNCTION      0.00   538.01     0  02:54           0        5.32       0.199
  WS02004402           JUNCTION      0.00   537.31     0  03:05           0        5.31       0.202
  WS02004403           JUNCTION      0.00   537.20     0  03:05           0         5.3       0.196
  WS02004404           JUNCTION      0.16   537.17     0  03:05     0.00467         5.3       0.162
  WS02004405           JUNCTION      0.04   537.22     0  03:05      0.0011        5.29       0.243
  WS02004406           JUNCTION      0.00   537.27     0  03:05           0        5.28       0.401
  WS02004407           JUNCTION      0.00   536.92     0  03:05           0        5.25       0.026
  WS02004409           JUNCTION      0.00   536.70     0  03:05           0        5.25       0.061
  WS02004410           JUNCTION      0.00   536.45     0  03:06           0        5.25       0.094
  WS02004411           JUNCTION      0.00   536.28     0  03:06           0        5.24       0.117
  WS02004412           JUNCTION      0.00   536.12     0  03:06           0        5.24       0.153
  WS02004413           JUNCTION      0.00   536.16     0  03:07           0        5.23       0.267
  WS02006109           JUNCTION      1.23   561.74     0  02:47      0.0354        5.37       0.133
  WS02006110           JUNCTION      0.00   561.93     0  02:47           0        5.36       0.137
  WS02006111           JUNCTION      0.00   562.09     0  02:33           0        5.35       0.015
  WS02006112           JUNCTION      0.00   543.64     0  02:40           0        5.35       0.334
  WS02006113           JUNCTION      0.00   568.92     0  02:27           0        5.36       0.042
  WS02006115           JUNCTION      0.00   553.95     0  02:48           0        5.33       0.130
  WS02006116           JUNCTION      0.00   539.74     0  03:29           0        5.33       0.106
  WS02006228           JUNCTION      0.00   560.42     0  02:47           0        5.34       0.047
  WS02006229           JUNCTION      0.00   559.69     0  02:47           0        5.34       0.127
  WS02006230           JUNCTION     10.28   598.67     0  03:06       0.296        5.35       0.055
  WS02006231           JUNCTION      0.00   578.45     0  02:31           0        5.05      -0.062
  WS02006232           JUNCTION      0.00   577.32     0  02:31           0        5.06       0.252
  WS02006234           JUNCTION      0.00   573.90     0  02:31           0        5.05      -0.284
  WS02006235           JUNCTION      0.00   567.65     0  02:31           0        5.13       0.279
  WS02006238           JUNCTION      0.00   425.22     0  02:35           0        4.06      -0.208
  WS02006239           JUNCTION      0.00   423.69     0  02:35           0           4      -0.178
  WS02006240           JUNCTION      0.00   420.89     0  03:20           0        3.97      -0.079
  WS02006242           JUNCTION      0.00   420.70     0  03:20           0        3.95      -0.001
  WS02006243           JUNCTION      0.00   421.07     0  02:50           0        3.94      -0.000
  WS02006245           JUNCTION      0.00   420.98     0  02:35           0        3.96       0.376
  WS02006247           JUNCTION      0.00   421.39     0  02:35           0        3.96       0.019
  WS02006248           JUNCTION      0.00   421.83     0  02:35           0        3.96       0.108
  WS02006249           JUNCTION      0.00   465.67     0  06:10           0        4.24       0.346
  WS02006251           JUNCTION      0.08   406.75     0  01:59     0.00222        4.24      -0.027
  WS02006252           JUNCTION      0.00   400.00     0  00:00           0        4.23      -0.067
  WS02006256           JUNCTION      0.00   300.00     0  00:00           0         1.6      -1.247
  WSF200               JUNCTION      0.00   536.06     0  03:07           0        5.21       0.011
  YS02001580           JUNCTION      0.00   138.71     0  01:53           0     0.00432      -0.061
  YS02001583           JUNCTION      0.00   165.54     0  01:53           0      0.0154      -3.935
  YS02001586           JUNCTION    749.82   749.82     0  02:04        1.76        1.77       0.067
  YS02001590           JUNCTION      0.00   318.33     0  02:09           0        1.36      -0.018
  YS02001593           JUNCTION      0.00   318.07     0  02:24           0        1.36      -0.003
  YS02001596           JUNCTION      0.00   318.09     0  02:02           0        1.36      -0.008
  YS02001600           JUNCTION      0.00   318.09     0  02:02           0        1.36       0.016
  YS02001601           JUNCTION   1352.38  1669.90     0  02:03        2.42        3.79       0.018
  YS02001602           JUNCTION      0.00   519.12     0  01:52           0         2.3       0.018
  YS02001605           JUNCTION      0.00   519.16     0  01:52           0        2.17       0.021
  YS02001607           JUNCTION      0.00   519.36     0  01:52           0        2.17       0.090
  YS02001610           JUNCTION      0.00   735.13     0  02:04           0        2.42       0.092
  YS02001613           JUNCTION      0.00   526.76     0  01:52           0        1.92       0.084
  YS02001616           JUNCTION      0.00   530.52     0  01:52           0        1.92       0.019
  YS02001619           JUNCTION   1333.55  1333.55     0  02:04        2.82        4.49      -0.003
  YS02001622           JUNCTION      0.00   951.88     0  02:02           0        4.25      -0.001
  YS02001625           JUNCTION      0.00  1351.32     0  02:04           0        4.47       0.208
  YS02001629           JUNCTION      0.00   922.03     0  01:53           0        3.43       0.015
  YS02001633           JUNCTION   1016.19  1364.42     0  01:55        1.77        4.93       0.072
  YS02001641           JUNCTION      0.00  1360.41     0  01:55           0        4.67       0.061
  YS02001644           JUNCTION    906.52  1762.64     0  01:55        1.53         6.2       0.054
  YS02001647           JUNCTION      0.00  1764.66     0  01:55           0        5.69       0.009
  YS02001649           JUNCTION      0.00  1984.78     0  01:55           0        7.09       0.004
  YS02001652           JUNCTION      0.00   915.56     0  02:02           0        1.41      -0.085
  YS02001655           JUNCTION      0.15   915.71     0  02:02     0.00443        1.41       0.004
  YS02001658           JUNCTION      0.00   914.84     0  02:02           0         1.4      -0.009
  YS02001661           JUNCTION      0.00   916.86     0  02:02           0         1.4      -0.009
  YS02001664           JUNCTION    890.37   890.37     0  02:02         1.4         1.4      -0.010
  YS02001745           JUNCTION    569.62   569.62     0  02:02       0.847       0.848       0.177
  YS02001748           JUNCTION      0.04   580.65     0  02:02      0.0013       0.848      -0.255
  YS02001751           JUNCTION      0.01   579.87     0  02:02    0.000317       0.856       0.074
  YS02001754           JUNCTION      0.26   579.64     0  02:02     0.00749        0.87      -0.150
  YS02001757           JUNCTION      0.00  3251.37     0  01:59           0        10.7       0.024
  YS02001759           JUNCTION    790.37  1345.14     0  02:01        1.17        2.73      -0.011
  YS02001762           JUNCTION      0.00   712.68     0  01:58           0        1.56      -0.006
  YS02001765           JUNCTION      0.00   713.29     0  01:58           0        1.56       0.005
  YS02001767           JUNCTION      0.54   713.36     0  01:58      0.0154        1.56      -0.006
  YS02001770           JUNCTION   1115.26  1115.26     0  02:02        1.78        1.83      -0.021
  YS02001774           JUNCTION      0.00   598.04     0  02:02           0       0.298       0.336
  YS02001779           JUNCTION      0.01   598.21     0  02:02    0.000144       0.254      -0.348
  YS02001783           JUNCTION      0.00  1167.53     0  02:00           0        4.14       0.006
  YS02001784           JUNCTION      1.06  1168.56     0  02:00      0.0305        4.17       0.012
  YS02001786           JUNCTION      0.06  1168.83     0  02:00     0.00162        4.17       0.018
  YS02001788           JUNCTION      0.07  1170.12     0  02:00     0.00204        4.17       0.007
  YS02001790           JUNCTION      0.15  1179.13     0  01:59     0.00446        4.18       0.022
  YS02001791           JUNCTION      0.00  1295.21     0  02:02           0        4.18      -0.026
  YS02001793           JUNCTION      0.00  1251.68     0  01:59           0        4.18       0.003
  YS02001882           JUNCTION      0.00    61.88     0  01:54           0      0.0127       4.821
  YS02001884           JUNCTION      0.00    84.96     0  01:54           0      0.0487       5.415
  YS02001887           JUNCTION    854.65   857.82     0  02:01        1.22        1.26       0.352
  YS02001890           JUNCTION      0.00   858.72     0  02:01           0        1.22       0.413
  YS02001895           JUNCTION      0.00   517.69     0  02:04           0         1.1       0.152
  YS02001898           JUNCTION      0.00   517.74     0  02:04           0         1.1       0.016
  YS02001901           JUNCTION      0.00   518.20     0  02:04           0         1.1       0.301
  YS02001904           JUNCTION      0.00   518.04     0  02:04           0         1.1       0.248
  YS02001907           JUNCTION      0.00  1995.48     0  02:02           0        3.77       0.472
  YS02001910           JUNCTION      0.00  1478.30     0  02:02           0        2.67       0.265
  YS02001915           JUNCTION    982.13  1478.88     0  02:02         1.7        2.71       0.054
  YS02001918           JUNCTION      0.00   496.95     0  02:02           0        1.04       0.011
  YS02001920           JUNCTION      2.87   496.77     0  02:02      0.0827        1.03       0.097
  YS02001923           JUNCTION      0.04   492.57     0  02:02     0.00109       0.927      -0.099
  YS02001926           JUNCTION      0.05   524.98     0  01:56      0.0015       0.907      -0.106
  YS02001929           JUNCTION    477.00   477.00     0  02:03       0.893       0.895      -0.059
  YS02006553           JUNCTION      0.00   797.71     0  02:19           0         2.4       0.491
  YS02006556           JUNCTION      0.00   797.93     0  02:20           0        2.41       0.333
  YS02006558           JUNCTION   1144.75  1167.90     0  02:00        1.79        4.17       0.083
  YS02006561           JUNCTION      0.00  1167.80     0  02:00           0        4.14      -0.002
  YS02163301           JUNCTION      0.00   918.81     0  01:55           0        3.42       0.046
  YS02163601           JUNCTION      0.11  1363.96     0  01:55     0.00317        4.66       0.107
  YS02164001           JUNCTION      0.00  1363.18     0  01:55           0        4.66       0.049
  CC-1                 OUTFALL       0.00   683.00     0  00:00           0         4.2       0.000
  CC-2                 OUTFALL       0.00   683.00     0  00:00           0        3.11       0.000
  JK-1                 OUTFALL       0.00  1000.00     0  00:00           0        2.64       0.000
  JK-2                 OUTFALL       0.00  1000.00     0  00:00           0       0.054       0.000
  WSC                  OUTFALL       0.00   554.37     0  03:09           0        5.73       0.000
  CC-storage           STORAGE       0.00  3253.45     0  01:59           0        12.9      -0.222
  JK-storage           STORAGE       0.00  1264.46     0  01:59           0        4.33      -0.390
  
  
  **********************
  Node Surcharge Summary
  **********************
  
  Surcharging occurs when water rises above the top of the highest conduit.
  ---------------------------------------------------------------------
                                               Max. Height   Min. Depth
                                   Hours       Above Crown    Below Rim
  Node                 Type      Surcharged         Meters       Meters
  ---------------------------------------------------------------------
  WS02006109           JUNCTION        1.96          0.426        1.394
  WS02006110           JUNCTION        0.85          0.468        1.382
  WS02006112           JUNCTION        0.95          0.089        1.591
  WS02006228           JUNCTION        1.96          0.439        1.761
  WS02006229           JUNCTION        1.97          0.518        1.932
  WS02006230           JUNCTION        0.84          0.484        1.086
  WS02006231           JUNCTION        1.07          1.005        0.525
  WS02006232           JUNCTION        2.00          1.480        0.000
  WS02006234           JUNCTION        1.54          0.879        0.361
  WS02006235           JUNCTION        1.91          0.782        0.508
  WS02006238           JUNCTION        1.96          0.818        0.612
  WS02006239           JUNCTION        1.94          0.755        0.535
  WS02006240           JUNCTION        1.96          0.750        0.640
  WS02006242           JUNCTION        2.00          0.764        0.056
  WS02006243           JUNCTION        1.96          0.630        0.140
  WS02006245           JUNCTION        1.95          0.564        0.286
  WS02006247           JUNCTION        1.95          0.527        0.233
  WS02006248           JUNCTION        1.94          0.380        0.000
  WS02006249           JUNCTION        1.94          0.390        0.000
  WS02006251           JUNCTION        1.18          0.341        0.839
  WS02006252           JUNCTION        2.26          1.100        0.000
  WS02006256           JUNCTION        6.54          2.050        0.000
  YS02001580           JUNCTION        0.65          0.450        0.000
  YS02001583           JUNCTION        0.66          0.500        0.000
  YS02001586           JUNCTION        0.80          0.510        0.000
  YS02001590           JUNCTION        0.88          0.750        0.000
  YS02001593           JUNCTION        0.88          0.713        0.127
  YS02001596           JUNCTION        1.00          0.957        0.113
  YS02001600           JUNCTION        1.16          1.190        0.000
  YS02001601           JUNCTION        1.48          1.440        0.000
  YS02001602           JUNCTION        1.39          1.270        0.000
  YS02001605           JUNCTION        1.34          1.180        0.000
  YS02001607           JUNCTION        0.87          0.680        0.000
  YS02001610           JUNCTION        0.90          0.680        0.000
  YS02001613           JUNCTION        0.87          0.672        0.028
  YS02001616           JUNCTION        0.83          0.610        0.000
  YS02001619           JUNCTION        0.81          0.610        0.000
  YS02001622           JUNCTION        0.81          0.620        0.000
  YS02001625           JUNCTION        1.00          0.780        0.000
  YS02001629           JUNCTION        0.76          0.470        0.000
  YS02001633           JUNCTION        1.03          0.995        0.065
  YS02001641           JUNCTION        0.98          0.952        0.148
  YS02001644           JUNCTION        0.95          0.920        0.000
  YS02001647           JUNCTION        0.74          0.811        0.089
  YS02001649           JUNCTION        0.88          1.046        0.004
  YS02001652           JUNCTION        0.67          0.968        0.162
  YS02001655           JUNCTION        0.49          1.014        0.186
  YS02001658           JUNCTION        0.26          1.038        0.262
  YS02001661           JUNCTION        0.04          0.347        1.043
  YS02001748           JUNCTION        0.20          0.665        0.525
  YS02001751           JUNCTION        0.36          0.719        0.481
  YS02001754           JUNCTION        0.58          0.703        0.447
  YS02001757           JUNCTION        0.95          1.021        0.189
  YS02001759           JUNCTION        0.85          1.017        0.193
  YS02001762           JUNCTION        0.82          0.998        0.152
  YS02001765           JUNCTION        0.77          0.964        0.136
  YS02001767           JUNCTION        0.73          0.935        0.095
  YS02001770           JUNCTION        0.70          0.920        0.000
  YS02001774           JUNCTION        0.80          1.008        0.042
  YS02001779           JUNCTION        0.57          0.680        0.000
  YS02001783           JUNCTION        0.57          0.520        1.080
  YS02001784           JUNCTION        0.55          0.378        1.112
  YS02001786           JUNCTION        0.44          0.122        1.308
  YS02001882           JUNCTION        0.52          0.830        0.000
  YS02001884           JUNCTION        0.53          0.870        0.000
  YS02001887           JUNCTION        0.56          0.899        0.051
  YS02001890           JUNCTION        0.57          0.760        0.000
  YS02001895           JUNCTION        0.51          0.567        0.183
  YS02001898           JUNCTION        0.50          0.536        0.204
  YS02001901           JUNCTION        0.55          0.680        0.190
  YS02001904           JUNCTION        0.54          0.645        0.205
  YS02001907           JUNCTION        0.79          0.950        0.000
  YS02001910           JUNCTION        0.60          0.980        0.120
  YS02001915           JUNCTION        0.51          1.000        0.000
  YS02001918           JUNCTION        0.43          0.810        0.000
  YS02001920           JUNCTION        0.44          1.140        0.000
  YS02001923           JUNCTION        0.12          0.820        0.000
  YS02001926           JUNCTION        0.15          0.900        0.000
  YS02001929           JUNCTION        0.01          0.780        0.000
  YS02006553           JUNCTION        0.81          0.989        0.201
  YS02006556           JUNCTION        0.70          0.937        0.413
  YS02006558           JUNCTION        0.68          0.942        0.458
  YS02006561           JUNCTION        0.39          0.185        0.965
  YS02163301           JUNCTION        1.01          0.917        0.113
  YS02163601           JUNCTION        1.06          1.033        0.047
  YS02164001           JUNCTION        0.98          0.952        0.148
  
  
  *********************
  Node Flooding Summary
  *********************
  
  Flooding refers to all water that overflows a node, whether it ponds or not.
  --------------------------------------------------------------------------
                                                             Total   Maximum
                                 Maximum   Time of Max       Flood    Ponded
                        Hours       Rate    Occurrence      Volume     Depth
  Node                 Flooded       LPS   days hr:min    10^6 ltr    Meters
  --------------------------------------------------------------------------
  WS02006232              0.01      9.80      0  03:06       0.000     0.000
  WS02006248              0.01     19.09      0  02:15       0.000     0.000
  WS02006249              1.12     98.99      0  01:59       0.264     0.000
  WS02006252              0.01    245.63      0  00:00       0.000     0.000
  WS02006256              1.48    293.19      0  00:00       0.513     0.000
  YS02001580              0.01    126.25      0  01:53       0.000     0.000
  YS02001583              0.01     39.95      0  01:53       0.000     0.000
  YS02001586              0.52    432.42      0  02:04       0.393     0.000
  YS02001590              0.01      2.12      0  01:53       0.000     0.000
  YS02001600              0.01      0.79      0  01:53       0.000     0.000
  YS02001601              0.72   1272.08      0  02:03       1.483     0.000
  YS02001602              0.63     62.00      0  02:15       0.127     0.000
  YS02001605              0.01      3.70      0  01:53       0.000     0.000
  YS02001607              0.01     27.91      0  01:53       0.000     0.000
  YS02001610              0.54    734.51      0  02:04       0.739     0.000
  YS02001616              0.01     44.07      0  01:53       0.000     0.000
  YS02001619              0.01     35.55      0  01:52       0.000     0.000
  YS02001622              0.01    115.07      0  01:52       0.000     0.000
  YS02001625              0.52   1351.32      0  02:04       1.293     0.000
  YS02001629              0.13    187.27      0  02:00       0.048     0.000
  YS02001644              0.22   1104.08      0  02:02       0.499     0.000
  YS02001770              0.01     97.63      0  01:56       0.000     0.000
  YS02001779              0.20    598.05      0  02:02       0.236     0.000
  YS02001882              0.01     16.23      0  01:55       0.000     0.000
  YS02001884              0.01     16.76      0  01:55       0.000     0.000
  YS02001890              0.19    343.56      0  02:01       0.112     0.000
  YS02001907              0.37   1963.41      0  02:02       1.366     0.000
  YS02001915              0.01     77.48      0  01:55       0.000     0.000
  YS02001918              0.01    154.40      0  01:57       0.002     0.000
  YS02001920              0.01     51.72      0  01:57       0.000     0.000
  YS02001923              0.01    127.29      0  01:57       0.000     0.000
  YS02001926              0.01    151.86      0  01:57       0.001     0.000
  YS02001929              0.01    160.01      0  01:57       0.001     0.000
  
  
  **********************
  Storage Volume Summary
  **********************
  
  ------------------------------------------------------------------------------------------------
                         Average    Avg   Evap  Exfil     Maximum    Max    Time of Max    Maximum
                          Volume   Pcnt   Pcnt   Pcnt      Volume   Pcnt     Occurrence    Outflow
  Storage Unit           1000 m³   Full   Loss   Loss     1000 m³   Full    days hr:min        LPS
  ------------------------------------------------------------------------------------------------
  CC-storage               2.593   40.4    0.0    0.0       4.877   76.1       0  02:31    1783.53
  JK-storage               0.138   47.4    0.0    0.0       0.213   73.1       0  02:15    2300.00
  
  
  ***********************
  Outfall Loading Summary
  ***********************
  
  -----------------------------------------------------------
                         Flow       Avg       Max       Total
                         Freq      Flow      Flow      Volume
  Outfall Node           Pcnt       LPS       LPS    10^6 ltr
  -----------------------------------------------------------
  CC-1                  20.99    683.00    683.00       4.202
  CC-2                  15.94    683.00    683.00       3.111
  JK-1                  10.62   1000.00   1000.00       2.643
  JK-2                   0.14   1000.00   1000.00       0.054
  WSC                   99.96    249.97    554.37       5.726
  -----------------------------------------------------------
  System                29.53   3615.97   3366.23      15.737
  
  
  ********************
  Link Flow Summary
  ********************
  
  -----------------------------------------------------------------------------
                                 Maximum  Time of Max   Maximum    Max/    Max/
                                  |Flow|   Occurrence   |Veloc|    Full    Full
  Link                 Type          LPS  days hr:min     m/sec    Flow   Depth
  -----------------------------------------------------------------------------
  1                    CONDUIT    554.37     0  03:09      2.83    0.19    0.30
  WS02003060WS02003069 CONDUIT    552.56     0  03:08      1.64    0.22    0.34
  WS02003066WSF200     CONDUIT    536.06     0  03:07      2.85    0.09    0.22
  WS02003067WS02003066 CONDUIT    536.03     0  03:07      1.21    0.17    0.42
  WS02003069WS02003072 CONDUIT    552.70     0  03:09      1.37    0.27    0.39
  WS02003072WS02003073 CONDUIT    552.63     0  03:09      1.43    1.19    0.37
  WS02004401WS02004402 CONDUIT    537.31     0  03:05      0.98    0.65    0.86
  WS02004402WS02004403 CONDUIT    537.20     0  03:05      0.97    0.77    0.88
  WS02004403WS02004404 CONDUIT    537.01     0  03:05      0.92    0.39    0.93
  WS02004404WS02004405 CONDUIT    537.18     0  03:05      1.08    5.26    0.96
  WS02004405WS02004406 CONDUIT    537.27     0  03:05      0.99    1.06    0.96
  WS02004406WS02004407 CONDUIT    536.92     0  03:05      1.04    0.24    0.63
  WS02004407WS02004409 CONDUIT    536.70     0  03:05      1.55    0.19    0.48
  WS02004409WS02004410 CONDUIT    536.45     0  03:06      1.03    0.69    0.67
  WS02004410WS02004411 CONDUIT    536.28     0  03:06      0.97    0.73    0.69
  WS02004411WS02004412 CONDUIT    536.12     0  03:06      0.92    0.76    0.69
  WS02004412WS02004413 CONDUIT    536.16     0  03:07      0.82    0.36    0.78
  WS02004413WS02003067 CONDUIT    536.00     0  03:07      1.11    0.23    0.59
  WS02006109WS02006110 CONDUIT    561.93     0  02:47      1.12    1.08    1.00
  WS02006110WS02006113 CONDUIT    568.92     0  02:27      1.38    0.52    0.79
  WS02006111WS02006112 CONDUIT    543.64     0  02:40      1.81    0.26    0.67
  WS02006112WS02006115 CONDUIT    553.95     0  02:48      0.85    0.33    0.87
  WS02006113WS02006111 CONDUIT    562.09     0  02:33      2.47    0.67    0.46
  WS02006115WS02006116 CONDUIT    539.74     0  03:29      1.04    0.69    0.76
  WS02006116WS02004401 CONDUIT    538.01     0  02:54      0.98    0.74    0.84
  WS02006228WS02006109 CONDUIT    560.51     0  02:47      1.12    2.45    1.00
  WS02006229WS02006228 CONDUIT    560.42     0  02:47      1.14    1.86    1.00
  WS02006230WS02006229 CONDUIT    559.69     0  02:47      1.45   12.46    1.00
  WS02006231WS02006230 CONDUIT    588.39     0  03:06      1.60    8.93    1.00
  WS02006232WS02006231 CONDUIT    578.45     0  02:31      1.51    1.21    1.00
  WS02006234WS02006232 CONDUIT    577.32     0  02:31      1.50    1.17    1.00
  WS02006235WS02006234 CONDUIT    573.90     0  02:31      1.49    6.05    1.00
  WS02006238WS02006235 CONDUIT    425.89     0  03:20      1.49    0.95    1.00
  WS02006239WS02006238 CONDUIT    425.22     0  02:35      1.10    1.36    1.00
  WS02006240WS02006239 CONDUIT    423.69     0  02:35      1.26    1.33    1.00
  WS02006242WS02006240 CONDUIT    420.89     0  03:20      1.14    1.67    1.00
  WS02006243WS02006242 CONDUIT    420.70     0  03:20      1.40    0.90    1.00
  WS02006245WS02006243 CONDUIT    421.07     0  02:50      1.45    1.25    1.00
  WS02006247WS02006245 CONDUIT    420.98     0  02:35      1.43    3.34    1.00
  WS02006248WS02006247 CONDUIT    421.39     0  02:35      1.44    0.92    1.00
  WS02006249WS02006248 CONDUIT    421.83     0  02:35      1.37    2.31    1.00
  WS02006251WS02006249 CONDUIT    465.67     0  06:10      1.99    1.34    1.00
  WS02006252WS02006251 CONDUIT    406.68     0  01:59     24.61    1.49    1.00
  WS02006256WS02006235 CONDUIT    288.91     0  00:00      4.23    3.06    1.00
  WSF200WS02003060     CONDUIT    536.20     0  03:08      2.06    0.12    0.28
  YS02001580YS02001583 CONDUIT    138.71     0  01:53      0.67    0.54    1.00
  YS02001583YS02001586 CONDUIT    157.06     0  01:53      0.68    0.24    1.00
  YS02001586YS02001590 CONDUIT    318.33     0  02:09      1.25    0.56    1.00
  YS02001590YS02001593 CONDUIT    318.07     0  02:24      1.12    2.00    1.00
  YS02001593YS02001596 CONDUIT    318.09     0  02:02      1.73    0.50    1.00
  YS02001596YS02001600 CONDUIT    318.09     0  02:02      1.24    0.62    1.00
  YS02001600YS02001601 CONDUIT    318.10     0  02:02      1.13    0.55    1.00
  YS02001601YS02001602 CONDUIT    519.12     0  01:52      1.84    1.88    1.00
  YS02001602YS02001605 CONDUIT    519.16     0  01:52      1.84   10.99    1.00
  YS02001605YS02001607 CONDUIT    519.36     0  01:52      1.84    2.85    1.00
  YS02001607YS02001610 CONDUIT    522.54     0  01:52      0.67    0.50    1.00
  YS02001610YS02001613 CONDUIT    526.76     0  01:52      0.67    0.61    1.00
  YS02001613YS02001616 CONDUIT    530.52     0  01:52      0.68    0.45    1.00
  YS02001616YS02001619 CONDUIT    499.01     0  01:52      0.67    0.87    1.00
  YS02001619YS02001622 CONDUIT    951.88     0  02:02      1.21    1.40    1.00
  YS02001622YS02001625 CONDUIT    953.08     0  02:02      1.21    0.51    1.00
  YS02001625YS02001629 CONDUIT    922.03     0  01:53      1.19    0.44    1.00
  YS02001629YS02163301 CONDUIT    918.81     0  01:55      1.17    1.13    1.00
  YS02001633YS02163601 CONDUIT   1363.85     0  01:55      1.74    1.43    1.00
  YS02001641YS02001644 CONDUIT   1360.41     0  01:55      1.73    4.40    1.00
  YS02001644YS02001647 CONDUIT   1764.66     0  01:55      2.25    1.04    1.00
  YS02001647YS02001649 CONDUIT   1770.10     0  01:55      2.31    0.93    1.00
  YS02001649YS02001757 CONDUIT   1939.84     0  01:55      2.48    1.18    1.00
  YS02001652YS02001649 CONDUIT    914.87     0  02:02      1.16    0.45    1.00
  YS02001655YS02001652 CONDUIT    915.56     0  02:02      1.34    0.44    1.00
  YS02001658YS02001655 CONDUIT    915.55     0  02:02      1.90    0.39    1.00
  YS02001661YS02001658 CONDUIT    914.84     0  02:02      2.30    0.36    1.00
  YS02001664YS02001661 CONDUIT    916.86     0  02:02      2.28    0.29    0.79
  YS02001745YS02001748 CONDUIT    580.61     0  02:02      2.16    0.22    0.91
  YS02001748YS02001751 CONDUIT    579.86     0  02:02      1.69    0.29    1.00
  YS02001751YS02001754 CONDUIT    579.38     0  02:02      1.43    0.28    1.00
  YS02001754YS02001757 CONDUIT    579.47     0  02:02      0.74    0.23    1.00
  YS02001757CaochengTiaoxuchi CONDUIT   3253.45     0  01:59      4.14    1.41    1.00
  YS02001759YS02001757 CONDUIT   1347.00     0  02:01      1.72    0.96    1.00
  YS02001762YS02001759 CONDUIT    710.27     0  01:58      0.90    0.82    1.00
  YS02001765YS02001762 CONDUIT    712.68     0  01:58      0.91    0.67    1.00
  YS02001767YS02001765 CONDUIT    713.29     0  01:58      0.91    0.90    1.00
  YS02001770YS02001767 CONDUIT    712.82     0  01:58      0.91    2.82    1.00
  YS02001774YS02001770 CONDUIT    598.04     0  02:02      0.76    0.38    1.00
  YS02001779YS02001774 CONDUIT    598.20     0  02:02      0.76    0.30    1.00
  YS02001783YS02001784 CONDUIT   1167.50     0  02:00      2.32    1.61    1.00
  YS02001784YS02001785 CONDUIT   1168.78     0  02:00      2.33    2.72    1.00
  YS02001786YS02001788 CONDUIT   1170.05     0  02:00      2.49    2.25    0.89
  YS02001788YS02001790 CONDUIT   1178.97     0  01:59      2.72    0.87    0.84
  YS02001790YS02001791 CONDUIT   1295.21     0  02:02      3.44    1.41    0.70
  YS02001791YS02001793 CONDUIT   1251.68     0  01:59      6.60    0.54    0.45
  YS02001793JiankangQianchi CONDUIT   1264.46     0  01:59      2.47    0.10    0.65
  YS02001882YS02001884 CONDUIT     61.88     0  01:54      0.13    0.07    1.00
  YS02001884YS02001887 CONDUIT     84.96     0  01:54      0.11    0.11    1.00
  YS02001887YS02001890 CONDUIT    858.72     0  02:01      1.09    1.47    1.00
  YS02001890YS02001895 CONDUIT    517.69     0  02:04      0.66    0.24    1.00
  YS02001895YS02001898 CONDUIT    517.74     0  02:04      0.66    0.90    1.00
  YS02001898YS02001901 CONDUIT    518.20     0  02:04      0.66    0.33    1.00
  YS02001901YS02001904 CONDUIT    518.04     0  02:04      0.66    0.80    1.00
  YS02001904YS02001907 CONDUIT    518.42     0  02:02      0.66    0.18    1.00
  YS02001907YS02006553 CONDUIT    797.71     0  02:19      0.89    0.94    1.00
  YS02001910YS02001907 CONDUIT   1478.99     0  02:02      1.88    0.83    1.00
  YS02001915YS02001910 CONDUIT   1478.30     0  02:02      1.88    0.73    1.00
  YS02001918YS02001915 CONDUIT    497.64     0  02:02      0.63    0.27    1.00
  YS02001920YS02001918 CONDUIT    496.95     0  02:02      0.64    0.48    1.00
  YS02001923YS02001920 CONDUIT    493.90     0  02:02      0.70    0.22    1.00
  YS02001926YS02001923 CONDUIT    492.53     0  02:02      0.95    0.70    1.00
  YS02001929YS02001926 CONDUIT    492.15     0  02:02      1.12    0.23    1.00
  YS02006553YS02006556 CONDUIT    797.93     0  02:20      1.02    0.68    1.00
  YS02006556YS02006558 CONDUIT    799.48     0  02:19      1.02    0.63    1.00
  YS02006558YS02006561 CONDUIT   1167.80     0  02:00      4.13    2.58    1.00
  YS02006561YS02001783 CONDUIT   1167.53     0  02:00      2.32    0.60    1.00
  YS02163301YS02001633 CONDUIT    919.73     0  01:55      1.17    0.86    1.00
  YS02163601YS02164001 CONDUIT   1363.18     0  01:55      1.74    1.21    1.00
  YS02164001YS02001641 CONDUIT   1360.41     0  01:55      1.73    1.86    1.00
  CC-R1                PUMP       683.00     0  00:00              1.00
  CC-R2                PUMP       683.00     0  00:00              1.00
  CC-S1                PUMP       200.00     0  00:00              1.00
  CC-S2                PUMP       200.00     0  00:00              1.00
  JK-R1                PUMP      1000.00     0  00:00              1.00
  JK-R2                PUMP      1000.00     0  00:00              1.00
  JK-S                 PUMP       300.00     0  00:00              1.00
  
  
  ***************************
  Flow Classification Summary
  ***************************
  
  -------------------------------------------------------------------------------------
                      Adjusted    ---------- Fraction of Time in Flow Class ---------- 
                       /Actual         Up    Down  Sub   Sup   Up    Down  Norm  Inlet 
  Conduit               Length    Dry  Dry   Dry   Crit  Crit  Crit  Crit  Ltd   Ctrl  
  -------------------------------------------------------------------------------------
  1                       1.00   0.00  0.00  0.00  0.00  1.00  0.00  0.00  0.43  0.00
  WS02003060WS02003069    1.00   0.00  0.00  0.00  0.97  0.03  0.00  0.00  0.68  0.00
  WS02003066WSF200        1.00   0.13  0.00  0.00  0.00  0.87  0.00  0.00  0.74  0.00
  WS02003067WS02003066    1.00   0.10  0.02  0.00  0.88  0.00  0.00  0.00  0.00  0.00
  WS02003069WS02003072    1.00   0.00  0.00  0.00  0.99  0.01  0.00  0.00  0.73  0.00
  WS02003072WS02003073    1.00   0.00  0.00  0.00  0.00  0.00  0.00  1.00  0.00  0.00
  WS02004401WS02004402    1.00   0.02  0.00  0.00  0.98  0.00  0.00  0.00  0.00  0.00
  WS02004402WS02004403    1.00   0.02  0.00  0.00  0.97  0.00  0.00  0.00  0.00  0.00
  WS02004403WS02004404    1.00   0.00  0.03  0.00  0.97  0.00  0.00  0.00  0.00  0.00
  WS02004404WS02004405    1.00   0.00  0.00  0.00  1.00  0.00  0.00  0.00  0.00  0.00
  WS02004405WS02004406    1.00   0.00  0.00  0.00  1.00  0.00  0.00  0.00  0.00  0.00
  WS02004406WS02004407    1.00   0.00  0.05  0.00  0.95  0.00  0.00  0.00  0.00  0.00
  WS02004407WS02004409    1.00   0.05  0.00  0.00  0.94  0.01  0.00  0.00  0.94  0.00
  WS02004409WS02004410    1.00   0.05  0.00  0.00  0.95  0.00  0.00  0.00  0.03  0.00
  WS02004410WS02004411    1.00   0.05  0.00  0.00  0.95  0.00  0.00  0.00  0.01  0.00
  WS02004411WS02004412    1.00   0.05  0.00  0.00  0.95  0.00  0.00  0.00  0.00  0.00
  WS02004412WS02004413    1.00   0.05  0.00  0.00  0.94  0.00  0.00  0.00  0.01  0.00
  WS02004413WS02003067    1.00   0.06  0.04  0.00  0.00  0.00  0.90  0.00  0.00  0.00
  WS02006109WS02006110    1.00   0.00  0.01  0.00  0.98  0.00  0.01  0.00  0.00  0.00
  WS02006110WS02006113    1.00   0.01  0.01  0.00  0.98  0.00  0.00  0.00  0.00  0.00
  WS02006111WS02006112    1.00   0.02  0.00  0.00  0.98  0.00  0.00  0.00  0.98  0.00
  WS02006112WS02006115    1.00   0.02  0.00  0.00  0.97  0.00  0.00  0.00  0.00  0.00
  WS02006113WS02006111    1.00   0.02  0.00  0.00  0.00  0.98  0.00  0.00  0.15  0.00
  WS02006115WS02006116    1.00   0.02  0.00  0.00  0.97  0.00  0.00  0.01  0.00  0.00
  WS02006116WS02004401    1.00   0.02  0.00  0.00  0.98  0.00  0.00  0.00  0.00  0.00
  WS02006228WS02006109    1.00   0.00  0.00  0.00  1.00  0.00  0.00  0.00  0.00  0.00
  WS02006229WS02006228    1.00   0.00  0.00  0.00  0.99  0.00  0.00  0.01  0.00  0.00
  WS02006230WS02006229    1.00   0.00  0.00  0.00  0.99  0.00  0.00  0.01  0.01  0.00
  WS02006231WS02006230    1.00   0.00  0.00  0.00  0.27  0.00  0.73  0.00  0.00  0.00
  WS02006232WS02006231    1.00   0.00  0.00  0.00  0.98  0.00  0.01  0.00  0.00  0.00
  WS02006234WS02006232    1.00   0.00  0.00  0.00  1.00  0.00  0.00  0.00  0.06  0.00
  WS02006235WS02006234    1.00   0.00  0.00  0.00  0.90  0.00  0.10  0.00  0.00  0.00
  WS02006238WS02006235    1.00   0.00  0.00  0.00  1.00  0.00  0.00  0.00  0.00  0.00
  WS02006239WS02006238    1.00   0.00  0.00  0.00  1.00  0.00  0.00  0.00  0.17  0.00
  WS02006240WS02006239    1.00   0.00  0.00  0.00  0.71  0.00  0.00  0.29  0.04  0.00
  WS02006242WS02006240    1.00   0.00  0.00  0.00  0.99  0.00  0.01  0.00  0.00  0.00
  WS02006243WS02006242    1.00   0.00  0.00  0.00  0.99  0.00  0.00  0.01  0.49  0.00
  WS02006245WS02006243    1.00   0.00  0.00  0.00  0.79  0.00  0.00  0.21  0.01  0.00
  WS02006247WS02006245    1.00   0.00  0.00  0.00  0.98  0.00  0.00  0.02  0.00  0.00
  WS02006248WS02006247    1.00   0.00  0.00  0.00  0.98  0.00  0.00  0.02  0.33  0.00
  WS02006249WS02006248    1.00   0.00  0.00  0.00  0.51  0.00  0.49  0.00  0.00  0.00
  WS02006251WS02006249    1.00   0.00  0.00  0.00  0.99  0.01  0.00  0.00  0.51  0.00
  WS02006252WS02006251    1.00   0.06  0.47  0.00  0.15  0.00  0.32  0.00  0.00  0.00
  WS02006256WS02006235    1.00   0.00  0.00  0.00  0.99  0.01  0.00  0.00  0.00  0.00
  WSF200WS02003060        1.00   0.00  0.13  0.00  0.20  0.68  0.00  0.00  0.47  0.00
  YS02001580YS02001583    1.00   0.23  0.57  0.00  0.20  0.00  0.00  0.00  0.66  0.00
  YS02001583YS02001586    1.00   0.42  0.33  0.00  0.26  0.00  0.00  0.00  0.66  0.00
  YS02001586YS02001590    1.00   0.13  0.00  0.00  0.43  0.04  0.00  0.40  0.36  0.00
  YS02001590YS02001593    1.00   0.13  0.01  0.00  0.13  0.00  0.74  0.00  0.00  0.00
  YS02001593YS02001596    1.00   0.13  0.00  0.00  0.14  0.01  0.00  0.71  0.02  0.00
  YS02001596YS02001600    1.00   0.14  0.00  0.00  0.20  0.01  0.00  0.65  0.04  0.00
  YS02001600YS02001601    1.00   0.13  0.01  0.00  0.86  0.00  0.00  0.00  0.60  0.00
  YS02001601YS02001602    1.00   0.13  0.01  0.00  0.87  0.00  0.00  0.00  0.00  0.00
  YS02001602YS02001605    1.00   0.13  0.00  0.00  0.86  0.00  0.00  0.00  0.00  0.00
  YS02001605YS02001607    1.00   0.14  0.00  0.00  0.86  0.00  0.00  0.00  0.00  0.00
  YS02001607YS02001610    1.00   0.13  0.01  0.00  0.86  0.00  0.00  0.00  0.01  0.00
  YS02001610YS02001613    1.00   0.13  0.00  0.00  0.87  0.00  0.00  0.00  0.00  0.00
  YS02001613YS02001616    1.00   0.13  0.00  0.00  0.87  0.00  0.00  0.00  0.00  0.00
  YS02001616YS02001619    1.00   0.13  0.00  0.00  0.87  0.00  0.00  0.00  0.00  0.00
  YS02001619YS02001622    1.00   0.13  0.00  0.00  0.87  0.00  0.00  0.00  0.29  0.00
  YS02001622YS02001625    1.00   0.13  0.00  0.00  0.87  0.00  0.00  0.00  0.04  0.00
  YS02001625YS02001629    1.00   0.13  0.05  0.00  0.17  0.00  0.65  0.00  0.00  0.00
  YS02001629YS02163301    1.00   0.15  0.01  0.00  0.84  0.00  0.00  0.00  0.00  0.00
  YS02001633YS02163601    1.00   0.00  0.01  0.00  0.99  0.00  0.00  0.00  0.15  0.00
  YS02001641YS02001644    1.00   0.00  0.01  0.00  0.99  0.00  0.00  0.00  0.00  0.00
  YS02001644YS02001647    1.00   0.00  0.17  0.00  0.83  0.00  0.00  0.00  0.00  0.00
  YS02001647YS02001649    1.00   0.00  0.17  0.00  0.57  0.26  0.00  0.00  0.56  0.00
  YS02001649YS02001757    1.00   0.00  0.00  0.00  0.88  0.12  0.00  0.00  0.42  0.00
  YS02001652YS02001649    1.00   0.00  0.00  0.00  0.97  0.03  0.00  0.00  0.73  0.00
  YS02001655YS02001652    1.00   0.00  0.00  0.00  0.20  0.01  0.00  0.79  0.05  0.00
  YS02001658YS02001655    1.00   0.00  0.14  0.00  0.68  0.18  0.00  0.00  0.67  0.00
  YS02001661YS02001658    1.00   0.14  0.00  0.00  0.51  0.35  0.00  0.00  0.68  0.00
  YS02001664YS02001661    1.00   0.13  0.00  0.00  0.78  0.10  0.00  0.00  0.85  0.00
  YS02001745YS02001748    1.00   0.00  0.00  0.00  0.11  0.01  0.00  0.88  0.05  0.00
  YS02001748YS02001751    1.00   0.00  0.00  0.00  0.84  0.16  0.00  0.00  0.76  0.00
  YS02001751YS02001754    1.00   0.00  0.00  0.00  0.19  0.01  0.00  0.81  0.04  0.00
  YS02001754YS02001757    1.00   0.00  0.00  0.00  1.00  0.00  0.00  0.00  0.80  0.00
  YS02001757CaochengTiaoxuchi    1.00   0.00  0.00  0.00  1.00  0.00  0.00  0.00  0.62  0.00
  YS02001759YS02001757    1.00   0.00  0.00  0.00  1.00  0.00  0.00  0.00  0.51  0.00
  YS02001762YS02001759    1.00   0.00  0.00  0.00  1.00  0.00  0.00  0.00  0.06  0.00
  YS02001765YS02001762    1.00   0.00  0.00  0.00  1.00  0.00  0.00  0.00  0.66  0.00
  YS02001767YS02001765    1.00   0.00  0.00  0.00  1.00  0.00  0.00  0.00  0.01  0.00
  YS02001770YS02001767    1.00   0.00  0.00  0.00  1.00  0.00  0.00  0.00  0.00  0.00
  YS02001774YS02001770    1.00   0.00  0.13  0.00  0.70  0.00  0.17  0.00  0.03  0.00
  YS02001779YS02001774    1.00   0.00  0.00  0.00  1.00  0.00  0.00  0.00  0.76  0.00
  YS02001783YS02001784    1.00   0.00  0.18  0.00  0.82  0.00  0.00  0.00  0.55  0.00
  YS02001784YS02001785    1.00   0.00  0.00  0.00  1.00  0.00  0.00  0.00  0.17  0.00
  YS02001786YS02001788    1.00   0.00  0.00  0.00  0.79  0.21  0.00  0.00  0.00  0.00
  YS02001788YS02001790    1.00   0.00  0.00  0.00  0.21  0.79  0.00  0.00  0.80  0.00
  YS02001790YS02001791    1.00   0.00  0.00  0.00  0.01  0.99  0.00  0.00  0.16  0.00
  YS02001791YS02001793    1.00   0.00  0.00  0.00  0.00  1.00  0.00  0.00  0.01  0.00
  YS02001793JiankangQianchi    1.00   0.00  0.00  0.00  0.99  0.01  0.00  0.00  0.94  0.00
  YS02001882YS02001884    1.00   0.15  0.01  0.00  0.84  0.00  0.00  0.00  0.00  0.00
  YS02001884YS02001887    1.00   0.06  0.05  0.00  0.89  0.00  0.00  0.00  0.00  0.00
  YS02001887YS02001890    1.00   0.00  0.00  0.00  0.97  0.00  0.03  0.00  0.00  0.00
  YS02001890YS02001895    1.00   0.00  0.16  0.00  0.84  0.00  0.00  0.00  0.00  0.00
  YS02001895YS02001898    1.00   0.16  0.00  0.00  0.82  0.00  0.02  0.00  0.00  0.00
  YS02001898YS02001901    1.00   0.17  0.00  0.00  0.83  0.00  0.00  0.00  0.01  0.00
  YS02001901YS02001904    1.00   0.16  0.00  0.00  0.84  0.00  0.00  0.00  0.00  0.00
  YS02001904YS02001907    1.00   0.00  0.16  0.00  0.84  0.00  0.00  0.00  0.00  0.00
  YS02001907YS02006553    1.00   0.00  0.02  0.00  0.98  0.00  0.00  0.00  0.00  0.00
  YS02001910YS02001907    1.00   0.00  0.00  0.00  0.97  0.00  0.00  0.03  0.12  0.00
  YS02001915YS02001910    1.00   0.00  0.00  0.00  0.97  0.03  0.00  0.00  0.16  0.00
  YS02001918YS02001915    1.00   0.00  0.01  0.00  0.98  0.02  0.00  0.00  0.74  0.00
  YS02001920YS02001918    1.00   0.00  0.01  0.00  0.99  0.00  0.00  0.00  0.00  0.00
  YS02001923YS02001920    1.00   0.00  0.00  0.00  1.00  0.00  0.00  0.00  0.92  0.00
  YS02001926YS02001923    1.00   0.00  0.07  0.00  0.06  0.00  0.86  0.00  0.00  0.00
  YS02001929YS02001926    1.00   0.00  0.13  0.00  0.87  0.00  0.00  0.00  0.82  0.00
  YS02006553YS02006556    1.00   0.01  0.00  0.00  0.99  0.00  0.00  0.00  0.03  0.00
  YS02006556YS02006558    1.00   0.00  0.00  0.00  1.00  0.00  0.00  0.00  0.00  0.00
  YS02006558YS02006561    1.00   0.18  0.00  0.00  0.06  0.76  0.00  0.00  0.19  0.00
  YS02006561YS02001783    1.00   0.18  0.00  0.00  0.09  0.73  0.00  0.00  0.68  0.00
  YS02163301YS02001633    1.00   0.00  0.15  0.00  0.85  0.00  0.00  0.00  0.00  0.00
  YS02163601YS02164001    1.00   0.00  0.08  0.00  0.92  0.00  0.00  0.00  0.00  0.00
  YS02164001YS02001641    1.00   0.01  0.07  0.00  0.92  0.00  0.00  0.00  0.05  0.00
  
  
  *************************
  Conduit Surcharge Summary
  *************************
  
  ----------------------------------------------------------------------------
                                                           Hours        Hours 
                         --------- Hours Full --------   Above Full   Capacity
  Conduit                Both Ends  Upstream  Dnstream   Normal Flow   Limited
  ----------------------------------------------------------------------------
  WS02003072WS02003073        0.01      0.01      0.01      1.58         0.01
  WS02004404WS02004405        0.01      0.01      0.01      3.61         0.01
  WS02004405WS02004406        0.01      0.01      0.01      0.84         0.01
  WS02006109WS02006110        0.85      0.85      1.99      1.02         0.01
  WS02006110WS02006113        0.01      0.01      1.98      0.01         0.01
  WS02006111WS02006112        0.01      0.01      2.19      0.01         0.01
  WS02006112WS02006115        0.01      0.01      0.95      0.01         0.01
  WS02006228WS02006109        1.96      1.99      1.96      2.53         1.96
  WS02006229WS02006228        1.96      1.97      1.96      2.22         1.94
  WS02006230WS02006229        2.08      2.18      2.08      4.46         2.08
  WS02006231WS02006230        0.84      0.84      1.15      4.05         0.01
  WS02006232WS02006231        1.06      1.06      2.00      1.16         0.01
  WS02006234WS02006232        1.89      1.89      2.00      1.13         1.12
  WS02006235WS02006234        1.53      1.54      1.90      3.81         0.03
  WS02006238WS02006235        1.92      1.92      2.00      0.01         0.01
  WS02006239WS02006238        1.96      1.98      1.96      2.09         1.74
  WS02006240WS02006239        1.93      1.96      1.94      2.10         1.60
  WS02006242WS02006240        1.96      1.96      2.04      2.23         0.01
  WS02006243WS02006242        1.96      1.96      2.00      0.01         0.08
  WS02006245WS02006243        1.95      1.95      1.96      1.23         1.09
  WS02006247WS02006245        1.95      1.95      1.95      3.57         1.93
  WS02006248WS02006247        1.94      1.94      1.95      0.01         0.07
  WS02006249WS02006248        1.94      1.94      1.94      3.52         0.01
  WS02006251WS02006249        1.94      1.94      1.94      2.19         1.83
  WS02006252WS02006251        2.25      2.25      2.25      2.25         0.01
  WS02006256WS02006235        3.85      3.91      6.47      1.50         0.01
  YS02001580YS02001583        0.65      0.65      0.71      0.01         0.01
  YS02001583YS02001586        0.66      0.66      0.80      0.01         0.01
  YS02001586YS02001590        0.81      0.81      0.88      0.01         0.01
  YS02001590YS02001593        0.88      0.88      0.90      0.92         0.01
  YS02001593YS02001596        0.89      0.89      1.00      0.01         0.01
  YS02001596YS02001600        1.05      1.05      1.16      0.01         0.01
  YS02001600YS02001601        1.22      1.22      1.48      0.01         0.01
  YS02001601YS02001602        1.39      1.39      1.51      1.14         0.01
  YS02001602YS02001605        1.34      1.34      1.39      2.29         0.01
  YS02001605YS02001607        1.30      1.34      1.30      1.45         1.30
  YS02001607YS02001610        0.87      0.87      0.90      0.01         0.01
  YS02001610YS02001613        0.87      0.87      0.90      0.01         0.01
  YS02001613YS02001616        0.83      0.83      0.87      0.01         0.01
  YS02001616YS02001619        0.81      0.81      0.83      0.01         0.02
  YS02001619YS02001622        0.81      0.81      0.81      0.86         0.75
  YS02001622YS02001625        0.81      0.81      1.00      0.01         0.01
  YS02001625YS02001629        0.76      0.76      1.00      0.01         0.01
  YS02001629YS02163301        1.00      1.00      1.01      0.05         0.13
  YS02001633YS02163601        1.03      1.03      1.06      0.31         0.30
  YS02001641YS02001644        0.95      0.98      0.95      1.55         0.93
  YS02001644YS02001647        0.74      0.74      0.95      0.03         0.01
  YS02001647YS02001649        0.74      0.74      0.88      0.01         0.01
  YS02001649YS02001757        0.88      0.88      0.95      0.07         0.03
  YS02001652YS02001649        0.70      0.70      0.88      0.01         0.01
  YS02001655YS02001652        0.49      0.49      0.67      0.01         0.01
  YS02001658YS02001655        0.26      0.26      0.49      0.01         0.01
  YS02001661YS02001658        0.04      0.04      0.26      0.01         0.01
  YS02001664YS02001661        0.01      0.01      0.11      0.01         0.01
  YS02001745YS02001748        0.01      0.01      0.20      0.01         0.01
  YS02001748YS02001751        0.24      0.24      0.36      0.01         0.01
  YS02001751YS02001754        0.36      0.36      0.58      0.01         0.01
  YS02001754YS02001757        0.62      0.62      0.95      0.01         0.01
  YS02001757CaochengTiaoxuchi        0.95      0.95      1.98      0.38         0.35
  YS02001759YS02001757        0.85      0.85      0.95      0.01         0.01
  YS02001762YS02001759        0.82      0.82      0.85      0.01         0.02
  YS02001765YS02001762        0.77      0.77      0.82      0.01         0.01
  YS02001767YS02001765        0.73      0.73      0.77      0.01         0.02
  YS02001770YS02001767        0.73      0.73      0.73      0.56         0.48
  YS02001774YS02001770        0.70      0.70      0.80      0.01         0.01
  YS02001779YS02001774        0.56      0.56      0.80      0.01         0.01
  YS02001783YS02001784        0.55      0.57      0.55      0.72         0.55
  YS02001784YS02001785        0.44      0.55      0.44      0.97         0.44
  YS02001786YS02001788        0.01      0.44      0.01      0.83         0.01
  YS02001790YS02001791        0.01      0.01      0.01      0.53         0.01
  YS02001793JiankangQianchi        0.01      0.01      7.25      0.01         0.01
  YS02001882YS02001884        0.52      0.52      0.53      0.01         0.01
  YS02001884YS02001887        0.55      0.55      0.56      0.01         0.01
  YS02001887YS02001890        0.57      0.57      0.59      0.13         0.01
  YS02001890YS02001895        0.51      0.51      0.60      0.01         0.01
  YS02001895YS02001898        0.50      0.50      0.51      0.01         0.01
  YS02001898YS02001901        0.51      0.51      0.55      0.01         0.01
  YS02001901YS02001904        0.54      0.54      0.55      0.01         0.01
  YS02001904YS02001907        0.54      0.54      0.81      0.01         0.01
  YS02001907YS02006553        0.98      0.98      1.06      0.01         0.01
  YS02001910YS02001907        0.60      0.60      0.79      0.01         0.01
  YS02001915YS02001910        0.51      0.51      0.60      0.01         0.01
  YS02001918YS02001915        0.43      0.43      0.51      0.01         0.01
  YS02001920YS02001918        0.43      0.43      0.44      0.01         0.01
  YS02001923YS02001920        0.38      0.38      0.44      0.01         0.01
  YS02001926YS02001923        0.12      0.12      0.15      0.01         0.01
  YS02001929YS02001926        0.01      0.01      0.15      0.01         0.01
  YS02006553YS02006556        0.70      0.70      0.81      0.01         0.01
  YS02006556YS02006558        0.75      0.75      0.83      0.01         0.01
  YS02006558YS02006561        0.46      0.68      0.46      0.92         0.46
  YS02006561YS02001783        0.39      0.39      0.57      0.01         0.01
  YS02163301YS02001633        1.01      1.01      1.04      0.01         0.01
  YS02163601YS02164001        0.98      0.98      1.06      0.07         0.01
  YS02164001YS02001641        0.98      0.98      0.98      0.71         0.65
  
  
  ***************
  Pumping Summary
  ***************
  
  ---------------------------------------------------------------------------------------------------------
                                                  Min       Avg       Max     Total     Power    % Time Off
                        Percent   Number of      Flow      Flow      Flow    Volume     Usage    Pump Curve
  Pump                 Utilized   Start-Ups       LPS       LPS       LPS  10^6 ltr     Kw-hr    Low   High
  ---------------------------------------------------------------------------------------------------------
  CC-R1                   21.37           7      0.00    683.00    683.00     4.204     78.85    0.0   16.4
  CC-R2                   15.82           5      0.00    683.00    683.00     3.112     58.78    0.0   19.2
  CC-S1                   42.87           5      0.00    200.00    200.00     2.469     14.12    0.0    0.0
  CC-S2                   30.65           6      0.00    200.00    200.00     1.766     10.02    0.0    0.0
  JK-R1                    9.19          14      0.00   1000.00   1000.00     2.645     31.23    0.0    0.0
  JK-R2                    0.18           2      0.00   1000.00   1000.00     0.053      0.39    0.0    0.0
  JK-S                    18.48          30      0.00    300.00    300.00     1.596     21.30    0.0    0.0
  

  Analysis begun on:  Mon Feb 24 09:50:40 2025
  Analysis ended on:  Mon Feb 24 09:50:42 2025
  Total elapsed time: 00:00:02