
  EPA STORM WATER MANAGEMENT MODEL - VERSION 5.2 (Build 5.2.4)
  PYSWMM TOOLKIT API - VERSION v1.0 (2023-11-27)
  ------------------------------------------------------------

  WARNING 04: minimum elevation drop used for Conduit WS02004404WS02004405
  WARNING 03: negative offset ignored for Link YS02001904YS02001907
  
  ****************
  Analysis Options
  ****************
  Flow Units ............... LPS
  Process Models:
    Rainfall/Runoff ........ YES
    RDII ................... NO
    Snowmelt ............... NO
    Groundwater ............ NO
    Flow Routing ........... YES
    Ponding Allowed ........ NO
    Water Quality .......... NO
  Infiltration Method ...... HORTON
  Flow Routing Method ...... DYNWAVE
  Surcharge Method ......... EXTRAN
  Starting Date ............ 08/28/2015 08:00:00
  Ending Date .............. 08/28/2015 16:00:00
  Antecedent Dry Days ...... 8.0
  Report Time Step ......... 00:01:00
  Wet Time Step ............ 00:01:00
  Dry Time Step ............ 00:01:00
  Routing Time Step ........ 30.00 sec
  Variable Time Step ....... YES
  Maximum Trials ........... 8
  Number of Threads ........ 4
  Head Tolerance ........... 0.001500 m
  
  
  **************************        Volume         Depth
  Runoff Quantity Continuity     hectare-m            mm
  **************************     ---------       -------
  Total Precipitation ......         2.620        78.985
  Evaporation Loss .........         0.000         0.000
  Infiltration Loss ........         0.102         3.081
  Surface Runoff ...........         2.485        74.926
  Final Storage ............         0.033         0.996
  Continuity Error (%) .....        -0.022
  
  
  **************************        Volume        Volume
  Flow Routing Continuity        hectare-m      10^6 ltr
  **************************     ---------     ---------
  Dry Weather Inflow .......         0.025         0.251
  Wet Weather Inflow .......         2.485        24.852
  Groundwater Inflow .......         0.000         0.000
  RDII Inflow ..............         0.000         0.000
  External Inflow ..........         0.083         0.834
  External Outflow .........         1.657        16.575
  Flooding Loss ............         1.003        10.031
  Evaporation Loss .........         0.000         0.000
  Exfiltration Loss ........         0.000         0.000
  Initial Stored Volume ....         0.243         2.431
  Final Stored Volume ......         0.182         1.821
  Continuity Error (%) .....        -0.210
  
  
  *************************
  Highest Continuity Errors
  *************************
  Node YS02001884 (5.42%)
  Node YS02001583 (-4.30%)
  Node WS02006256 (-1.21%)
  
  
  ***************************
  Time-Step Critical Elements
  ***************************
  Link WS02006252WS02006251 (47.17%)
  Link WS02006238WS02006235 (13.88%)
  Link WS02004404WS02004405 (10.97%)
  Link YS02001791YS02001793 (7.16%)
  Link WS02003066WSF200 (6.34%)
  
  
  ********************************
  Highest Flow Instability Indexes
  ********************************
  Link WS02006113WS02006111 (46)
  Link WS02006111WS02006112 (22)
  Link WS02004404WS02004405 (19)
  Link WS02004403WS02004404 (17)
  Link WS02006238WS02006235 (16)
  
  
  *********************************
  Most Frequent Nonconverging Nodes
  *********************************
  Node CC-1 (11.84%)
  Node CC-2 (11.84%)
  Node JK-1 (11.84%)
  Node JK-2 (11.84%)
  Node WSC (11.84%)
  
  
  *************************
  Routing Time Step Summary
  *************************
  Minimum Time Step           :     0.02 sec
  Average Time Step           :     1.88 sec
  Maximum Time Step           :     7.04 sec
  % of Time in Steady State   :     0.00
  Average Iterations per Step :     3.11
  % of Steps Not Converging   :    11.84
  Time Step Frequencies       :
     30.000 - 13.228 sec      :     0.00 %
     13.228 -  5.833 sec      :     5.49 %
      5.833 -  2.572 sec      :    20.47 %
      2.572 -  1.134 sec      :    21.27 %
      1.134 -  0.500 sec      :    52.77 %
  
  
  ***************************
  Subcatchment Runoff Summary
  ***************************
  
  ------------------------------------------------------------------------------------------------------------------------------
                            Total      Total      Total      Total     Imperv       Perv      Total       Total     Peak  Runoff
                           Precip      Runon       Evap      Infil     Runoff     Runoff     Runoff      Runoff   Runoff   Coeff
  Subcatchment                 mm         mm         mm         mm         mm         mm         mm    10^6 ltr      LPS
  ------------------------------------------------------------------------------------------------------------------------------
  sub60                     78.98       0.00       0.00       1.83      68.31       7.65      75.96        1.00   719.67   0.962
  sub61                     78.98       0.00       0.00       2.66      64.43      10.77      75.20        1.38  1001.39   0.952
  sub62                     78.98       0.00       0.00       1.22      71.38       5.10      76.48        2.10  1404.40   0.968
  sub63                     78.98       0.00       0.00       4.93      55.11      17.98      73.09        1.66  1140.56   0.925
  sub64                     78.98       0.00       0.00       2.49      65.93       9.36      75.30        1.81  1163.72   0.953
  sub65                     78.98       0.00       0.00       2.15      67.47       8.12      75.58        2.08  1305.14   0.957
  sub66                     78.98       0.00       0.00       6.16      55.00      16.75      71.75        3.35  1753.81   0.908
  sub67                     78.98       0.00       0.00       1.17      71.43       5.15      76.58        1.42  1074.80   0.970
  sub68                     78.98       0.00       0.00       2.20      66.74       8.86      75.60        2.08  1444.57   0.957
  sub69                     78.98       0.00       0.00       1.98      67.03       9.87      76.90        2.85  1734.96   0.974
  sub70                     78.98       0.00       0.00       6.70      51.97      20.16      72.12        2.08   987.05   0.913
  sub71                     78.98       0.00       0.00       1.25      71.34       5.07      76.41        2.00  1257.07   0.967
  sub72                     78.98       0.00       0.00       1.12      72.05       4.41      76.47        1.05   614.23   0.968
  
  
  ******************
  Node Depth Summary
  ******************
  
  ---------------------------------------------------------------------------------
                                 Average  Maximum  Maximum  Time of Max    Reported
                                   Depth    Depth      HGL   Occurrence   Max Depth
  Node                 Type       Meters   Meters   Meters  days hr:min      Meters
  ---------------------------------------------------------------------------------
  WS02003060           JUNCTION     0.24     0.38     5.32     0  02:26        0.38
  WS02003066           JUNCTION     0.20     0.30     5.85     0  02:25        0.30
  WS02003067           JUNCTION     0.51     0.70     6.02     0  02:25        0.70
  WS02003069           JUNCTION     0.27     0.43     5.01     0  02:27        0.43
  WS02003072           JUNCTION     0.33     0.50     4.87     0  02:28        0.50
  WS02003073           JUNCTION     0.19     0.30     4.36     0  02:25        0.30
  WS02004401           JUNCTION     0.60     0.87     6.87     0  02:20        0.87
  WS02004402           JUNCTION     0.63     0.90     6.86     0  02:21        0.90
  WS02004403           JUNCTION     0.65     0.92     6.85     0  02:21        0.92
  WS02004404           JUNCTION     0.73     1.01     6.86     0  02:20        0.99
  WS02004405           JUNCTION     0.72     0.96     6.81     0  02:26        0.96
  WS02004406           JUNCTION     0.73     0.96     6.79     0  02:26        0.96
  WS02004407           JUNCTION     0.18     0.30     6.61     0  02:21        0.29
  WS02004409           JUNCTION     0.40     0.67     6.44     0  02:21        0.67
  WS02004410           JUNCTION     0.42     0.68     6.40     0  02:22        0.68
  WS02004411           JUNCTION     0.44     0.69     6.37     0  02:22        0.69
  WS02004412           JUNCTION     0.46     0.70     6.34     0  02:22        0.70
  WS02004413           JUNCTION     0.62     0.86     6.33     0  02:22        0.86
  WS02006109           JUNCTION     0.65     1.17     7.79     0  02:56        1.01
  WS02006110           JUNCTION     0.65     1.23     7.81     0  02:56        0.94
  WS02006111           JUNCTION     0.18     0.29     6.99     0  02:38        0.29
  WS02006112           JUNCTION     0.75     1.08     6.96     0  02:31        1.08
  WS02006113           JUNCTION     0.27     0.46     7.35     0  03:13        0.46
  WS02006115           JUNCTION     0.48     0.77     6.91     0  02:20        0.77
  WS02006116           JUNCTION     0.57     0.85     6.89     0  02:20        0.85
  WS02006228           JUNCTION     0.64     1.27     7.93     0  02:56        1.13
  WS02006229           JUNCTION     0.61     1.33     8.02     0  02:56        1.17
  WS02006230           JUNCTION     0.60     1.56     8.30     0  02:56        1.31
  WS02006231           JUNCTION     0.42     1.80     8.93     0  02:25        1.03
  WS02006232           JUNCTION     0.56     1.65     8.68     0  02:25        1.45
  WS02006234           JUNCTION     0.48     1.90     9.05     0  02:16        1.90
  WS02006235           JUNCTION     0.52     2.00     9.16     0  02:16        2.00
  WS02006238           JUNCTION     0.55     2.15     9.29     0  02:16        2.15
  WS02006239           JUNCTION     0.51     2.03     9.24     0  02:16        2.03
  WS02006240           JUNCTION     0.47     2.04     9.33     0  02:16        2.04
  WS02006242           JUNCTION     0.54     1.55     8.82     0  02:01        1.55
  WS02006243           JUNCTION     0.45     1.48     8.90     0  02:16        1.48
  WS02006245           JUNCTION     0.45     1.56     9.04     0  02:42        1.56
  WS02006247           JUNCTION     0.47     1.47     8.97     0  02:42        1.47
  WS02006248           JUNCTION     0.44     1.10     8.69     0  02:02        1.10
  WS02006249           JUNCTION     0.47     1.09     8.69     0  02:02        1.09
  WS02006251           JUNCTION     0.47     1.46     9.13     0  02:55        1.26
  WS02006252           JUNCTION     0.35     1.50     9.74     0  00:00        0.87
  WS02006256           JUNCTION     1.05     2.35     9.28     0  00:00        2.35
  WSF200               JUNCTION     0.17     0.29     5.52     0  02:25        0.29
  YS02001580           JUNCTION     0.09     1.05     9.59     0  01:59        0.80
  YS02001583           JUNCTION     0.12     1.05     9.54     0  01:59        0.81
  YS02001586           JUNCTION     0.19     1.13     9.30     0  01:59        1.13
  YS02001590           JUNCTION     0.29     1.40     9.26     0  01:59        1.38
  YS02001593           JUNCTION     0.22     1.34     9.20     0  01:59        1.29
  YS02001596           JUNCTION     0.31     1.68     9.10     0  01:59        1.67
  YS02001600           JUNCTION     0.36     1.87     9.00     0  01:59        1.87
  YS02001601           JUNCTION     0.55     2.06     8.90     0  01:59        2.06
  YS02001602           JUNCTION     0.46     1.87     8.77     0  02:02        1.87
  YS02001605           JUNCTION     0.43     1.78     8.68     0  02:11        1.78
  YS02001607           JUNCTION     0.43     1.68     8.53     0  02:25        1.68
  YS02001610           JUNCTION     0.47     1.68     8.48     0  02:02        1.68
  YS02001613           JUNCTION     0.43     1.67     8.51     0  02:42        1.67
  YS02001616           JUNCTION     0.36     1.61     8.52     0  02:10        1.61
  YS02001619           JUNCTION     0.34     1.61     8.54     0  02:11        1.61
  YS02001622           JUNCTION     0.33     1.58     8.49     0  02:15        1.58
  YS02001625           JUNCTION     0.60     1.78     8.38     0  02:02        1.78
  YS02001629           JUNCTION     0.45     1.85     8.40     0  02:04        1.85
  YS02001633           JUNCTION     0.53     2.05     8.51     0  02:13        2.05
  YS02001641           JUNCTION     0.52     1.97     8.41     0  02:25        1.95
  YS02001644           JUNCTION     0.52     1.92     8.35     0  02:05        1.92
  YS02001647           JUNCTION     0.31     1.77     8.38     0  02:12        1.76
  YS02001649           JUNCTION     0.35     2.02     8.41     0  02:12        2.00
  YS02001652           JUNCTION     0.25     1.88     8.47     0  02:12        1.86
  YS02001655           JUNCTION     0.19     1.72     8.57     0  02:05        1.66
  YS02001658           JUNCTION     0.14     1.65     8.79     0  02:05        1.57
  YS02001661           JUNCTION     0.17     1.27     8.68     0  02:12        1.26
  YS02001664           JUNCTION     0.06     0.76     8.69     0  02:12        0.75
  YS02001745           JUNCTION     0.08     0.94     8.46     0  02:12        0.94
  YS02001748           JUNCTION     0.14     1.36     8.44     0  02:12        1.36
  YS02001751           JUNCTION     0.17     1.54     8.42     0  02:12        1.53
  YS02001754           JUNCTION     0.22     1.78     8.39     0  02:12        1.75
  YS02001757           JUNCTION     0.39     2.09     8.35     0  02:12        2.09
  YS02001759           JUNCTION     0.32     2.09     8.45     0  02:12        2.08
  YS02001762           JUNCTION     0.31     2.06     8.46     0  02:12        2.04
  YS02001765           JUNCTION     0.29     2.01     8.46     0  02:12        2.00
  YS02001767           JUNCTION     0.29     1.97     8.46     0  02:12        1.96
  YS02001770           JUNCTION     0.30     1.95     8.44     0  02:10        1.95
  YS02001774           JUNCTION     0.36     2.00     8.43     0  02:11        2.00
  YS02001779           JUNCTION     0.21     1.68     8.37     0  02:03        1.68
  YS02001783           JUNCTION     0.23     1.31     7.45     0  02:04        1.23
  YS02001784           JUNCTION     0.24     1.17     7.24     0  02:04        1.12
  YS02001786           JUNCTION     0.21     0.91     6.94     0  02:04        0.87
  YS02001788           JUNCTION     0.15     0.63     6.60     0  02:11        0.62
  YS02001790           JUNCTION     0.17     0.73     6.37     0  02:10        0.73
  YS02001791           JUNCTION     0.11     0.44     5.91     0  02:09        0.43
  YS02001793           JUNCTION     0.06     0.30     5.13     0  02:06        0.29
  YS02001882           JUNCTION     0.30     1.69     8.40     0  02:13        1.69
  YS02001884           JUNCTION     0.39     1.77     8.39     0  02:16        1.77
  YS02001887           JUNCTION     0.47     1.86     8.39     0  02:13        1.86
  YS02001890           JUNCTION     0.50     1.81     8.32     0  02:04        1.81
  YS02001895           JUNCTION     0.26     1.57     8.31     0  02:26        1.57
  YS02001898           JUNCTION     0.27     1.57     8.31     0  02:26        1.56
  YS02001901           JUNCTION     0.39     1.68     8.29     0  02:26        1.68
  YS02001904           JUNCTION     0.37     1.64     8.27     0  02:04        1.64
  YS02001907           JUNCTION     0.70     1.96     8.25     0  02:04        1.96
  YS02001910           JUNCTION     0.49     2.01     8.52     0  02:13        2.01
  YS02001915           JUNCTION     0.30     2.00     8.72     0  02:13        2.00
  YS02001918           JUNCTION     0.17     1.81     8.88     0  02:05        1.68
  YS02001920           JUNCTION     0.24     2.10     9.11     0  02:05        2.00
  YS02001923           JUNCTION     0.13     2.03     9.29     0  02:05        2.03
  YS02001926           JUNCTION     0.16     1.90     9.35     0  02:05        1.90
  YS02001929           JUNCTION     0.09     1.78     9.47     0  02:04        1.78
  YS02006553           JUNCTION     0.70     1.99     8.28     0  02:04        1.98
  YS02006556           JUNCTION     0.67     1.99     8.30     0  02:04        1.98
  YS02006558           JUNCTION     0.71     2.04     8.31     0  02:13        2.04
  YS02006561           JUNCTION     0.14     1.00     7.66     0  02:04        0.90
  YS02163301           JUNCTION     0.47     1.94     8.46     0  02:13        1.94
  YS02163601           JUNCTION     0.57     2.05     8.45     0  02:25        2.03
  YS02164001           JUNCTION     0.50     1.98     8.44     0  02:25        1.94
  CC-1                 OUTFALL      0.00     0.00     0.00     0  00:00        0.00
  CC-2                 OUTFALL      0.00     0.00     0.00     0  00:00        0.00
  JK-1                 OUTFALL      0.00     0.00     0.00     0  00:00        0.00
  JK-2                 OUTFALL      0.00     0.00     0.00     0  00:00        0.00
  WSC                  OUTFALL      0.19     0.30     0.97     0  02:25        0.30
  CC-storage           STORAGE      0.96     1.86     7.36     0  02:39        1.86
  JK-storage           STORAGE      2.91     4.23     5.03     0  02:10        4.22
  
  
  *******************
  Node Inflow Summary
  *******************
  
  -------------------------------------------------------------------------------------------------
                                  Maximum  Maximum                  Lateral       Total        Flow
                                  Lateral    Total  Time of Max      Inflow      Inflow     Balance
                                   Inflow   Inflow   Occurrence      Volume      Volume       Error
  Node                 Type           LPS      LPS  days hr:min    10^6 ltr    10^6 ltr     Percent
  -------------------------------------------------------------------------------------------------
  WS02003060           JUNCTION     16.53   552.40     0  02:25       0.476        5.83       0.040
  WS02003066           JUNCTION      0.00   534.16     0  02:23           0        5.35       0.025
  WS02003067           JUNCTION      0.00   534.10     0  02:22           0        5.36       0.079
  WS02003069           JUNCTION      0.32   551.81     0  02:26     0.00922        5.83       0.067
  WS02003072           JUNCTION      0.00   550.47     0  02:27           0        5.83       0.119
  WS02003073           JUNCTION      1.82   552.09     0  02:28      0.0524        5.87       0.097
  WS02004401           JUNCTION      0.00   540.66     0  02:32           0        5.45       0.192
  WS02004402           JUNCTION      0.00   540.80     0  02:27           0        5.44       0.195
  WS02004403           JUNCTION      0.00   540.51     0  02:17           0        5.43       0.188
  WS02004404           JUNCTION      0.16   554.21     0  02:28     0.00467        5.43       0.186
  WS02004405           JUNCTION      0.04   601.81     0  02:16      0.0011        5.42       0.140
  WS02004406           JUNCTION      0.00   542.48     0  02:26           0        5.41       0.388
  WS02004407           JUNCTION      0.00   536.90     0  02:26           0        5.39       0.024
  WS02004409           JUNCTION      0.00   536.24     0  02:21           0        5.39       0.052
  WS02004410           JUNCTION      0.00   535.16     0  02:36           0        5.39       0.083
  WS02004411           JUNCTION      0.00   535.12     0  02:22           0        5.38       0.106
  WS02004412           JUNCTION      0.00   534.99     0  02:24           0        5.38       0.141
  WS02004413           JUNCTION      0.00   534.74     0  02:25           0        5.37       0.248
  WS02006109           JUNCTION      1.23   562.32     0  02:56      0.0354         5.5       0.121
  WS02006110           JUNCTION      0.00   563.34     0  02:56           0         5.5       0.142
  WS02006111           JUNCTION      0.00   562.08     0  02:04           0        5.49       0.018
  WS02006112           JUNCTION      0.00   542.87     0  02:38           0        5.48       0.313
  WS02006113           JUNCTION      0.00   567.44     0  02:03           0        5.49       0.040
  WS02006115           JUNCTION      0.00   550.89     0  02:38           0        5.47       0.126
  WS02006116           JUNCTION      0.00   540.11     0  02:23           0        5.46       0.112
  WS02006228           JUNCTION      0.00   560.50     0  02:56           0        5.47       0.070
  WS02006229           JUNCTION      0.00   560.14     0  02:56           0        5.48       0.126
  WS02006230           JUNCTION     10.28   593.02     0  02:06       0.296        5.48       0.061
  WS02006231           JUNCTION      0.00   577.62     0  03:11           0        5.18      -0.077
  WS02006232           JUNCTION      0.00   576.91     0  03:11           0         5.2       0.283
  WS02006234           JUNCTION      0.00   572.65     0  03:11           0        5.18      -0.271
  WS02006235           JUNCTION      0.00   566.62     0  03:11           0         5.3       0.258
  WS02006238           JUNCTION      0.00   424.44     0  02:45           0        4.21      -0.243
  WS02006239           JUNCTION      0.00   422.98     0  02:45           0        4.15      -0.109
  WS02006240           JUNCTION      0.00   420.44     0  02:05           0         4.1      -0.069
  WS02006242           JUNCTION      0.00   420.82     0  02:55           0        4.06       0.026
  WS02006243           JUNCTION      0.00   420.17     0  03:20           0        4.05      -0.057
  WS02006245           JUNCTION      0.00   419.90     0  02:05           0        4.06       0.444
  WS02006247           JUNCTION      0.00   420.42     0  02:45           0        4.06      -0.005
  WS02006248           JUNCTION      0.00   420.30     0  02:05           0        4.06       0.117
  WS02006249           JUNCTION      0.00   459.02     0  00:00           0        4.32       0.392
  WS02006251           JUNCTION      0.08   405.61     0  03:32     0.00222        4.32      -0.023
  WS02006252           JUNCTION      0.00   400.00     0  00:00           0        4.32      -0.094
  WS02006256           JUNCTION      0.00   300.00     0  00:00           0        1.62      -1.199
  WSF200               JUNCTION      0.00   534.21     0  02:23           0        5.35       0.009
  YS02001580           JUNCTION      0.00    77.06     0  01:59           0     0.00413       1.241
  YS02001583           JUNCTION      0.00   130.86     0  01:59           0      0.0153      -4.124
  YS02001586           JUNCTION    987.05   987.20     0  02:15        2.08         2.1       0.050
  YS02001590           JUNCTION      0.00   318.14     0  02:25           0        1.46      -0.020
  YS02001593           JUNCTION      0.00   318.15     0  02:32           0        1.46       0.007
  YS02001596           JUNCTION      0.00   317.99     0  02:07           0        1.46      -0.014
  YS02001600           JUNCTION      0.00   318.15     0  02:32           0        1.46       0.015
  YS02001601           JUNCTION   1734.96  2052.31     0  02:14        2.85        4.31       0.026
  YS02001602           JUNCTION      0.00   502.34     0  01:58           0        2.41       0.023
  YS02001605           JUNCTION      0.00   502.81     0  01:58           0        2.26       0.033
  YS02001607           JUNCTION      0.00   502.04     0  01:58           0        2.26       0.087
  YS02001610           JUNCTION      0.00   949.58     0  02:16           0        2.72       0.087
  YS02001613           JUNCTION      0.00   613.32     0  02:16           0        2.13       0.071
  YS02001616           JUNCTION      0.00   613.54     0  02:16           0        2.13       0.016
  YS02001619           JUNCTION   1753.81  1753.81     0  02:15        3.35        5.02      -0.003
  YS02001622           JUNCTION      0.00  1053.78     0  02:15           0        4.54      -0.001
  YS02001625           JUNCTION      0.00  1504.06     0  02:16           0        4.92       0.207
  YS02001629           JUNCTION      0.00   913.43     0  02:02           0        3.56       0.008
  YS02001633           JUNCTION   1305.34  1309.99     0  02:02        2.09         5.2       0.069
  YS02001641           JUNCTION      0.00  1305.64     0  02:02           0        4.77       0.062
  YS02001644           JUNCTION   1163.76  1993.49     0  02:13        1.81         6.6       0.052
  YS02001647           JUNCTION      0.00  1671.18     0  02:02           0        5.58       0.009
  YS02001649           JUNCTION      0.00  1845.61     0  02:02           0        7.22       0.006
  YS02001652           JUNCTION      0.00  1156.85     0  02:13           0        1.67      -0.049
  YS02001655           JUNCTION      0.15  1157.62     0  02:13     0.00443        1.66       0.019
  YS02001658           JUNCTION      0.00  1156.19     0  02:13           0        1.66      -0.050
  YS02001661           JUNCTION      0.00  1155.82     0  02:13           0        1.66       0.017
  YS02001664           JUNCTION   1140.56  1140.56     0  02:13        1.66        1.66      -0.009
  YS02001745           JUNCTION    719.67   719.67     0  02:13       0.998       0.998       0.135
  YS02001748           JUNCTION      0.04   728.64     0  02:13      0.0013       0.998      -0.269
  YS02001751           JUNCTION      0.01   729.16     0  02:13    0.000317        1.01       0.111
  YS02001754           JUNCTION      0.26   729.63     0  02:13     0.00749        1.02      -0.126
  YS02001757           JUNCTION      0.00  3087.19     0  02:12           0        11.2       0.011
  YS02001759           JUNCTION   1001.43  1343.34     0  02:13        1.38        3.01      -0.004
  YS02001762           JUNCTION      0.00   699.44     0  02:07           0        1.63       0.013
  YS02001765           JUNCTION      0.00   700.93     0  02:07           0        1.63       0.009
  YS02001767           JUNCTION      0.54   701.91     0  02:07      0.0154        1.63       0.012
  YS02001770           JUNCTION   1404.55  1404.55     0  02:13         2.1        2.14       0.008
  YS02001774           JUNCTION      0.00   850.63     0  02:15           0       0.515       0.283
  YS02001779           JUNCTION      0.01   850.63     0  02:15    0.000144        0.47      -0.146
  YS02001783           JUNCTION      0.00  1169.23     0  02:13           0        4.41       0.005
  YS02001784           JUNCTION      1.06  1169.92     0  02:13      0.0305        4.44       0.011
  YS02001786           JUNCTION      0.06  1170.83     0  02:13     0.00162        4.45       0.017
  YS02001788           JUNCTION      0.07  1170.96     0  02:13     0.00204        4.45       0.006
  YS02001790           JUNCTION      0.15  1182.50     0  02:11     0.00446        4.45       0.026
  YS02001791           JUNCTION      0.00  1299.68     0  02:09           0        4.45      -0.034
  YS02001793           JUNCTION      0.00  1266.28     0  02:10           0        4.45       0.003
  YS02001882           JUNCTION      0.00    35.04     0  02:01           0      0.0131       5.510
  YS02001884           JUNCTION      0.00    48.86     0  02:00           0      0.0492       5.730
  YS02001887           JUNCTION   1075.25  1076.58     0  02:13        1.44        1.47       0.304
  YS02001890           JUNCTION      0.00  1078.07     0  02:13           0        1.43       0.361
  YS02001895           JUNCTION      0.00   518.49     0  02:16           0        1.22       0.144
  YS02001898           JUNCTION      0.00   518.22     0  02:16           0        1.21       0.018
  YS02001901           JUNCTION      0.00   518.15     0  02:16           0        1.22       0.277
  YS02001904           JUNCTION      0.00   518.16     0  02:16           0        1.22       0.238
  YS02001907           JUNCTION      0.00  2660.71     0  02:14           0         4.4       0.411
  YS02001910           JUNCTION      0.00  1875.55     0  02:14           0        3.13       0.227
  YS02001915           JUNCTION   1257.09  1875.19     0  02:14           2        3.16       0.051
  YS02001918           JUNCTION      0.00   620.68     0  02:14           0        1.18       0.021
  YS02001920           JUNCTION      2.87   619.97     0  02:14      0.0827        1.17       0.089
  YS02001923           JUNCTION      0.04   615.22     0  02:14     0.00109        1.07      -0.007
  YS02001926           JUNCTION      0.05   615.39     0  02:14      0.0015        1.06      -0.040
  YS02001929           JUNCTION    614.23   614.23     0  02:14        1.05        1.05      -0.060
  YS02006553           JUNCTION      0.00   803.21     0  02:31           0        2.47       0.484
  YS02006556           JUNCTION      0.00   803.23     0  02:31           0        2.48       0.324
  YS02006558           JUNCTION   1445.45  1445.45     0  02:13        2.11         4.5       0.077
  YS02006561           JUNCTION      0.00  1168.85     0  02:13           0        4.41      -0.001
  YS02163301           JUNCTION      0.00   911.07     0  02:02           0        3.56       0.048
  YS02163601           JUNCTION      0.11  1309.36     0  02:02     0.00317        4.76       0.108
  YS02164001           JUNCTION      0.00  1307.98     0  02:02           0        4.76       0.046
  CC-1                 OUTFALL       0.00   683.00     0  00:00           0        4.16       0.000
  CC-2                 OUTFALL       0.00   683.00     0  00:00           0         3.6       0.000
  JK-1                 OUTFALL       0.00  1000.00     0  00:00           0        2.91       0.000
  JK-2                 OUTFALL       0.00  1000.00     0  00:00           0      0.0484       0.000
  WSC                  OUTFALL       0.00   552.00     0  02:25           0        5.87       0.000
  CC-storage           STORAGE       0.00  3086.41     0  02:11           0        13.4      -0.204
  JK-storage           STORAGE       0.00  1223.70     0  02:06           0         4.6      -0.370
  
  
  **********************
  Node Surcharge Summary
  **********************
  
  Surcharging occurs when water rises above the top of the highest conduit.
  ---------------------------------------------------------------------
                                               Max. Height   Min. Depth
                                   Hours       Above Crown    Below Rim
  Node                 Type      Surcharged         Meters       Meters
  ---------------------------------------------------------------------
  WS02004404           JUNCTION        0.01          0.012        2.768
  WS02006109           JUNCTION        2.08          0.355        1.465
  WS02006110           JUNCTION        0.71          0.317        1.533
  WS02006112           JUNCTION        1.10          0.082        1.598
  WS02006228           JUNCTION        2.07          0.445        1.755
  WS02006229           JUNCTION        2.08          0.526        1.924
  WS02006230           JUNCTION        0.73          0.479        1.091
  WS02006231           JUNCTION        0.98          1.093        0.437
  WS02006232           JUNCTION        2.09          0.946        0.534
  WS02006234           JUNCTION        1.40          1.178        0.062
  WS02006235           JUNCTION        2.01          1.290        0.000
  WS02006238           JUNCTION        2.07          1.430        0.000
  WS02006239           JUNCTION        2.04          1.290        0.000
  WS02006240           JUNCTION        2.07          1.328        0.062
  WS02006242           JUNCTION        2.08          0.820        0.000
  WS02006243           JUNCTION        2.07          0.770        0.000
  WS02006245           JUNCTION        2.06          0.850        0.000
  WS02006247           JUNCTION        2.06          0.760        0.000
  WS02006248           JUNCTION        2.05          0.380        0.000
  WS02006249           JUNCTION        2.05          0.390        0.000
  WS02006251           JUNCTION        1.10          0.429        0.751
  WS02006252           JUNCTION        2.32          1.100        0.000
  WS02006256           JUNCTION        6.79          2.050        0.000
  YS02001580           JUNCTION        0.74          0.450        0.000
  YS02001583           JUNCTION        0.75          0.407        0.093
  YS02001586           JUNCTION        0.88          0.510        0.000
  YS02001590           JUNCTION        0.96          0.750        0.000
  YS02001593           JUNCTION        0.96          0.716        0.124
  YS02001596           JUNCTION        1.09          0.952        0.118
  YS02001600           JUNCTION        1.24          1.190        0.000
  YS02001601           JUNCTION        1.54          1.440        0.000
  YS02001602           JUNCTION        1.45          1.270        0.000
  YS02001605           JUNCTION        1.40          1.180        0.000
  YS02001607           JUNCTION        0.97          0.680        0.000
  YS02001610           JUNCTION        0.99          0.680        0.000
  YS02001613           JUNCTION        0.96          0.670        0.030
  YS02001616           JUNCTION        0.92          0.610        0.000
  YS02001619           JUNCTION        0.90          0.610        0.000
  YS02001622           JUNCTION        0.90          0.584        0.036
  YS02001625           JUNCTION        1.10          0.780        0.000
  YS02001629           JUNCTION        0.85          0.470        0.000
  YS02001633           JUNCTION        1.13          1.033        0.027
  YS02001641           JUNCTION        1.08          0.971        0.129
  YS02001644           JUNCTION        1.06          0.920        0.000
  YS02001647           JUNCTION        0.84          0.771        0.129
  YS02001649           JUNCTION        0.98          1.017        0.033
  YS02001652           JUNCTION        0.78          0.845        0.285
  YS02001655           JUNCTION        0.61          0.725        0.475
  YS02001658           JUNCTION        0.36          0.652        0.648
  YS02001661           JUNCTION        0.12          0.202        1.188
  YS02001748           JUNCTION        0.29          0.283        0.907
  YS02001751           JUNCTION        0.48          0.538        0.662
  YS02001754           JUNCTION        0.70          0.731        0.419
  YS02001757           JUNCTION        1.04          1.093        0.117
  YS02001759           JUNCTION        0.97          1.089        0.121
  YS02001762           JUNCTION        0.93          1.059        0.091
  YS02001765           JUNCTION        0.88          1.005        0.095
  YS02001767           JUNCTION        0.85          0.968        0.062
  YS02001770           JUNCTION        0.82          0.920        0.000
  YS02001774           JUNCTION        0.91          1.004        0.046
  YS02001779           JUNCTION        0.69          0.680        0.000
  YS02001783           JUNCTION        0.64          0.512        1.088
  YS02001784           JUNCTION        0.61          0.370        1.120
  YS02001786           JUNCTION        0.49          0.108        1.322
  YS02001882           JUNCTION        0.58          0.686        0.144
  YS02001884           JUNCTION        0.59          0.714        0.156
  YS02001887           JUNCTION        0.63          0.805        0.145
  YS02001890           JUNCTION        0.64          0.760        0.000
  YS02001895           JUNCTION        0.57          0.568        0.182
  YS02001898           JUNCTION        0.56          0.542        0.198
  YS02001901           JUNCTION        0.61          0.681        0.189
  YS02001904           JUNCTION        0.60          0.644        0.206
  YS02001907           JUNCTION        0.88          0.950        0.000
  YS02001910           JUNCTION        0.67          1.012        0.088
  YS02001915           JUNCTION        0.58          1.000        0.000
  YS02001918           JUNCTION        0.48          0.810        0.000
  YS02001920           JUNCTION        0.50          1.099        0.041
  YS02001923           JUNCTION        0.19          0.820        0.000
  YS02001926           JUNCTION        0.23          0.900        0.000
  YS02001929           JUNCTION        0.07          0.780        0.000
  YS02006553           JUNCTION        0.90          0.992        0.198
  YS02006556           JUNCTION        0.77          0.951        0.399
  YS02006558           JUNCTION        0.76          0.939        0.461
  YS02006561           JUNCTION        0.45          0.203        0.947
  YS02163301           JUNCTION        1.11          0.941        0.089
  YS02163601           JUNCTION        1.16          1.048        0.032
  YS02164001           JUNCTION        1.08          0.981        0.119
  
  
  *********************
  Node Flooding Summary
  *********************
  
  Flooding refers to all water that overflows a node, whether it ponds or not.
  --------------------------------------------------------------------------
                                                             Total   Maximum
                                 Maximum   Time of Max       Flood    Ponded
                        Hours       Rate    Occurrence      Volume     Depth
  Node                 Flooded       LPS   days hr:min    10^6 ltr    Meters
  --------------------------------------------------------------------------
  WS02006235              0.01      2.14      0  02:16       0.000     0.000
  WS02006238              0.01      1.68      0  02:16       0.000     0.000
  WS02006239              0.01      0.82      0  02:16       0.000     0.000
  WS02006242              0.01     64.95      0  02:01       0.000     0.000
  WS02006243              0.01      2.70      0  02:42       0.000     0.000
  WS02006245              0.01      1.84      0  02:42       0.000     0.000
  WS02006247              0.01      1.71      0  02:42       0.000     0.000
  WS02006248              0.02     28.72      0  02:02       0.001     0.000
  WS02006249              1.05     90.33      0  02:02       0.242     0.000
  WS02006252              0.01    245.63      0  00:00       0.000     0.000
  WS02006256              1.50    293.19      0  00:00       0.498     0.000
  YS02001580              0.01     52.02      0  01:59       0.000     0.000
  YS02001586              0.60    669.40      0  02:15       0.623     0.000
  YS02001590              0.01      7.26      0  01:59       0.000     0.000
  YS02001600              0.01      2.10      0  01:59       0.000     0.000
  YS02001601              0.81   1654.33      0  02:14       1.895     0.000
  YS02001602              0.70     61.99      0  02:09       0.145     0.000
  YS02001605              0.01      0.28      0  02:11       0.000     0.000
  YS02001607              0.01      0.61      0  02:25       0.000     0.000
  YS02001610              0.63    949.13      0  02:16       1.043     0.000
  YS02001616              0.04      1.76      0  02:14       0.000     0.000
  YS02001619              0.08    104.28      0  02:14       0.018     0.000
  YS02001625              0.61   1503.84      0  02:16       1.786     0.000
  YS02001629              0.21    215.87      0  02:14       0.067     0.000
  YS02001644              0.32   1992.96      0  02:13       1.034     0.000
  YS02001770              0.07    235.75      0  02:13       0.034     0.000
  YS02001779              0.27    850.51      0  02:15       0.452     0.000
  YS02001890              0.25    563.13      0  02:13       0.209     0.000
  YS02001907              0.43   2660.09      0  02:14       1.982     0.000
  YS02001915              0.01      0.85      0  02:13       0.000     0.000
  YS02001918              0.01     97.11      0  02:05       0.001     0.000
  YS02001923              0.01     85.11      0  02:05       0.000     0.000
  YS02001926              0.01     37.46      0  02:05       0.000     0.000
  YS02001929              0.01    218.63      0  02:04       0.001     0.000
  
  
  **********************
  Storage Volume Summary
  **********************
  
  ------------------------------------------------------------------------------------------------
                         Average    Avg   Evap  Exfil     Maximum    Max    Time of Max    Maximum
                          Volume   Pcnt   Pcnt   Pcnt      Volume   Pcnt     Occurrence    Outflow
  Storage Unit           1000 m³   Full   Loss   Loss     1000 m³   Full    days hr:min        LPS
  ------------------------------------------------------------------------------------------------
  CC-storage               2.672   41.7    0.0    0.0       5.180   80.8       0  02:39    1783.53
  JK-storage               0.146   50.1    0.0    0.0       0.212   72.9       0  02:10    2300.00
  
  
  ***********************
  Outfall Loading Summary
  ***********************
  
  -----------------------------------------------------------
                         Flow       Avg       Max       Total
                         Freq      Flow      Flow      Volume
  Outfall Node           Pcnt       LPS       LPS    10^6 ltr
  -----------------------------------------------------------
  CC-1                  23.05    683.00    683.00       4.157
  CC-2                  20.46    683.00    683.00       3.596
  JK-1                  11.81   1000.00   1000.00       2.906
  JK-2                   0.14   1000.00   1000.00       0.048
  WSC                   99.96    259.51    552.00       5.868
  -----------------------------------------------------------
  System                31.08   3625.51   3366.23      16.575
  
  
  ********************
  Link Flow Summary
  ********************
  
  -----------------------------------------------------------------------------
                                 Maximum  Time of Max   Maximum    Max/    Max/
                                  |Flow|   Occurrence   |Veloc|    Full    Full
  Link                 Type          LPS  days hr:min     m/sec    Flow   Depth
  -----------------------------------------------------------------------------
  1                    CONDUIT    552.00     0  02:25      2.82    0.19    0.30
  WS02003060WS02003069 CONDUIT    551.49     0  02:26      1.64    0.22    0.34
  WS02003066WSF200     CONDUIT    534.21     0  02:23      2.85    0.09    0.22
  WS02003067WS02003066 CONDUIT    534.16     0  02:23      1.20    0.17    0.42
  WS02003069WS02003072 CONDUIT    550.47     0  02:27      1.37    0.27    0.39
  WS02003072WS02003073 CONDUIT    550.27     0  02:28      1.43    1.19    0.37
  WS02004401WS02004402 CONDUIT    540.80     0  02:27      0.98    0.65    0.89
  WS02004402WS02004403 CONDUIT    540.51     0  02:17      0.97    0.78    0.91
  WS02004403WS02004404 CONDUIT    554.05     0  02:28      0.92    0.40    0.96
  WS02004404WS02004405 CONDUIT    601.77     0  02:16      1.08    5.90    0.98
  WS02004405WS02004406 CONDUIT    542.48     0  02:26      0.99    1.07    0.96
  WS02004406WS02004407 CONDUIT    536.90     0  02:26      1.04    0.24    0.63
  WS02004407WS02004409 CONDUIT    536.24     0  02:21      1.52    0.19    0.48
  WS02004409WS02004410 CONDUIT    535.16     0  02:36      0.99    0.69    0.67
  WS02004410WS02004411 CONDUIT    535.12     0  02:22      0.94    0.73    0.68
  WS02004411WS02004412 CONDUIT    534.99     0  02:24      0.92    0.76    0.69
  WS02004412WS02004413 CONDUIT    534.74     0  02:25      0.82    0.36    0.78
  WS02004413WS02003067 CONDUIT    534.10     0  02:22      1.11    0.23    0.59
  WS02006109WS02006110 CONDUIT    563.34     0  02:56      1.12    1.08    1.00
  WS02006110WS02006113 CONDUIT    567.44     0  02:03      1.37    0.52    0.79
  WS02006111WS02006112 CONDUIT    542.87     0  02:38      1.81    0.26    0.67
  WS02006112WS02006115 CONDUIT    550.89     0  02:38      0.82    0.33    0.88
  WS02006113WS02006111 CONDUIT    562.08     0  02:04      2.47    0.67    0.46
  WS02006115WS02006116 CONDUIT    540.11     0  02:23      0.97    0.69    0.78
  WS02006116WS02004401 CONDUIT    540.66     0  02:32      0.98    0.75    0.86
  WS02006228WS02006109 CONDUIT    561.09     0  02:56      1.12    2.45    1.00
  WS02006229WS02006228 CONDUIT    560.50     0  02:56      1.14    1.86    1.00
  WS02006230WS02006229 CONDUIT    560.14     0  02:56      1.46   12.47    1.00
  WS02006231WS02006230 CONDUIT    582.74     0  02:06      1.59    8.84    1.00
  WS02006232WS02006231 CONDUIT    577.62     0  03:11      1.50    1.21    1.00
  WS02006234WS02006232 CONDUIT    576.91     0  03:11      1.50    1.17    1.00
  WS02006235WS02006234 CONDUIT    572.65     0  03:11      1.49    6.04    1.00
  WS02006238WS02006235 CONDUIT    425.36     0  02:55      1.46    0.95    1.00
  WS02006239WS02006238 CONDUIT    424.44     0  02:45      1.22    1.36    1.00
  WS02006240WS02006239 CONDUIT    422.98     0  02:45      1.30    1.33    1.00
  WS02006242WS02006240 CONDUIT    420.44     0  02:05      1.17    1.67    1.00
  WS02006243WS02006242 CONDUIT    420.82     0  02:55      1.43    0.90    1.00
  WS02006245WS02006243 CONDUIT    420.17     0  03:20      1.45    1.24    1.00
  WS02006247WS02006245 CONDUIT    419.90     0  02:05      1.43    3.33    1.00
  WS02006248WS02006247 CONDUIT    420.42     0  02:45      1.46    0.92    1.00
  WS02006249WS02006248 CONDUIT    420.30     0  02:05      1.39    2.30    1.00
  WS02006251WS02006249 CONDUIT    459.02     0  00:00      1.99    1.32    1.00
  WS02006252WS02006251 CONDUIT    405.53     0  03:32     24.61    1.49    1.00
  WS02006256WS02006235 CONDUIT    288.91     0  00:00      4.23    3.06    1.00
  WSF200WS02003060     CONDUIT    535.87     0  02:25      2.07    0.12    0.28
  YS02001580YS02001583 CONDUIT     77.06     0  01:59      0.56    0.30    1.00
  YS02001583YS02001586 CONDUIT    130.86     0  01:59      0.55    0.20    1.00
  YS02001586YS02001590 CONDUIT    318.14     0  02:25      1.25    0.56    1.00
  YS02001590YS02001593 CONDUIT    318.15     0  02:32      1.13    2.00    1.00
  YS02001593YS02001596 CONDUIT    317.99     0  02:07      1.72    0.50    1.00
  YS02001596YS02001600 CONDUIT    318.15     0  02:32      1.27    0.62    1.00
  YS02001600YS02001601 CONDUIT    318.30     0  02:32      1.13    0.55    1.00
  YS02001601YS02001602 CONDUIT    502.34     0  01:58      1.78    1.81    1.00
  YS02001602YS02001605 CONDUIT    502.81     0  01:58      1.78   10.64    1.00
  YS02001605YS02001607 CONDUIT    502.04     0  01:58      1.78    2.75    1.00
  YS02001607YS02001610 CONDUIT    499.30     0  01:58      0.64    0.47    1.00
  YS02001610YS02001613 CONDUIT    613.35     0  02:16      0.78    0.71    1.00
  YS02001613YS02001616 CONDUIT    613.32     0  02:16      0.78    0.53    1.00
  YS02001616YS02001619 CONDUIT    613.54     0  02:16      0.78    1.07    1.00
  YS02001619YS02001622 CONDUIT   1053.78     0  02:15      1.34    1.55    1.00
  YS02001622YS02001625 CONDUIT   1053.60     0  02:16      1.34    0.56    1.00
  YS02001625YS02001629 CONDUIT    913.43     0  02:02      1.16    0.43    1.00
  YS02001629YS02163301 CONDUIT    911.07     0  02:02      1.16    1.12    1.00
  YS02001633YS02163601 CONDUIT   1309.25     0  02:02      1.67    1.37    1.00
  YS02001641YS02001644 CONDUIT   1304.99     0  02:02      1.66    4.22    1.00
  YS02001644YS02001647 CONDUIT   1671.18     0  02:02      2.17    0.98    1.00
  YS02001647YS02001649 CONDUIT   1681.71     0  02:02      2.29    0.89    1.00
  YS02001649YS02001757 CONDUIT   1807.71     0  02:02      2.38    1.10    1.00
  YS02001652YS02001649 CONDUIT   1157.50     0  02:13      1.47    0.57    1.00
  YS02001655YS02001652 CONDUIT   1156.85     0  02:13      1.47    0.56    1.00
  YS02001658YS02001655 CONDUIT   1157.46     0  02:13      1.84    0.49    1.00
  YS02001661YS02001658 CONDUIT   1156.19     0  02:13      2.21    0.45    1.00
  YS02001664YS02001661 CONDUIT   1155.82     0  02:13      2.13    0.36    0.88
  YS02001745YS02001748 CONDUIT    728.60     0  02:13      2.05    0.28    0.97
  YS02001748YS02001751 CONDUIT    729.15     0  02:13      1.62    0.37    1.00
  YS02001751YS02001754 CONDUIT    729.37     0  02:13      1.42    0.35    1.00
  YS02001754YS02001757 CONDUIT    730.29     0  02:13      0.93    0.29    1.00
  YS02001757CaochengTiaoxuchi CONDUIT   3086.41     0  02:11      3.93    1.34    1.00
  YS02001759YS02001757 CONDUIT   1343.23     0  02:13      1.71    0.95    1.00
  YS02001762YS02001759 CONDUIT    700.38     0  02:07      0.89    0.81    1.00
  YS02001765YS02001762 CONDUIT    699.44     0  02:07      0.89    0.66    1.00
  YS02001767YS02001765 CONDUIT    700.93     0  02:07      0.89    0.88    1.00
  YS02001770YS02001767 CONDUIT    701.37     0  02:07      0.89    2.78    1.00
  YS02001774YS02001770 CONDUIT    850.63     0  02:15      1.08    0.54    1.00
  YS02001779YS02001774 CONDUIT    850.63     0  02:15      1.08    0.43    1.00
  YS02001783YS02001784 CONDUIT   1168.86     0  02:13      2.33    1.61    1.00
  YS02001784YS02001785 CONDUIT   1170.77     0  02:13      2.33    2.72    1.00
  YS02001786YS02001788 CONDUIT   1170.89     0  02:13      2.49    2.26    0.89
  YS02001788YS02001790 CONDUIT   1182.34     0  02:11      2.72    0.87    0.84
  YS02001790YS02001791 CONDUIT   1299.68     0  02:09      3.44    1.41    0.71
  YS02001791YS02001793 CONDUIT   1266.28     0  02:10      6.69    0.54    0.45
  YS02001793JiankangQianchi CONDUIT   1223.70     0  02:06      2.36    0.10    0.65
  YS02001882YS02001884 CONDUIT     35.04     0  02:01      0.13    0.04    1.00
  YS02001884YS02001887 CONDUIT     48.86     0  02:00      0.10    0.07    1.00
  YS02001887YS02001890 CONDUIT   1078.07     0  02:13      1.37    1.85    1.00
  YS02001890YS02001895 CONDUIT    518.49     0  02:16      0.66    0.24    1.00
  YS02001895YS02001898 CONDUIT    518.22     0  02:16      0.66    0.90    1.00
  YS02001898YS02001901 CONDUIT    518.15     0  02:16      0.66    0.33    1.00
  YS02001901YS02001904 CONDUIT    518.16     0  02:16      0.66    0.80    1.00
  YS02001904YS02001907 CONDUIT    519.13     0  02:16      0.66    0.18    1.00
  YS02001907YS02006553 CONDUIT    803.21     0  02:31      0.89    0.94    1.00
  YS02001910YS02001907 CONDUIT   1876.03     0  02:14      2.39    1.06    1.00
  YS02001915YS02001910 CONDUIT   1875.55     0  02:14      2.39    0.93    1.00
  YS02001918YS02001915 CONDUIT    620.44     0  02:14      0.79    0.34    1.00
  YS02001920YS02001918 CONDUIT    620.68     0  02:14      0.79    0.60    1.00
  YS02001923YS02001920 CONDUIT    617.10     0  02:14      0.79    0.28    1.00
  YS02001926YS02001923 CONDUIT    615.18     0  02:14      0.94    0.88    1.00
  YS02001929YS02001926 CONDUIT    615.34     0  02:14      1.09    0.29    1.00
  YS02006553YS02006556 CONDUIT    803.23     0  02:31      1.02    0.69    1.00
  YS02006556YS02006558 CONDUIT    804.01     0  02:30      1.02    0.63    1.00
  YS02006558YS02006561 CONDUIT   1168.85     0  02:13      4.13    2.58    1.00
  YS02006561YS02001783 CONDUIT   1169.23     0  02:13      2.33    0.61    1.00
  YS02163301YS02001633 CONDUIT    910.41     0  02:02      1.16    0.86    1.00
  YS02163601YS02164001 CONDUIT   1307.98     0  02:02      1.67    1.16    1.00
  YS02164001YS02001641 CONDUIT   1305.64     0  02:02      1.66    1.78    1.00
  CC-R1                PUMP       683.00     0  00:00              1.00
  CC-R2                PUMP       683.00     0  00:00              1.00
  CC-S1                PUMP       200.00     0  00:00              1.00
  CC-S2                PUMP       200.00     0  00:00              1.00
  JK-R1                PUMP      1000.00     0  00:00              1.00
  JK-R2                PUMP      1000.00     0  00:00              1.00
  JK-S                 PUMP       300.00     0  00:00              1.00
  
  
  ***************************
  Flow Classification Summary
  ***************************
  
  -------------------------------------------------------------------------------------
                      Adjusted    ---------- Fraction of Time in Flow Class ---------- 
                       /Actual         Up    Down  Sub   Sup   Up    Down  Norm  Inlet 
  Conduit               Length    Dry  Dry   Dry   Crit  Crit  Crit  Crit  Ltd   Ctrl  
  -------------------------------------------------------------------------------------
  1                       1.00   0.00  0.00  0.00  0.00  1.00  0.00  0.00  0.40  0.00
  WS02003060WS02003069    1.00   0.00  0.00  0.00  0.97  0.03  0.00  0.00  0.64  0.00
  WS02003066WSF200        1.00   0.13  0.00  0.00  0.00  0.87  0.00  0.00  0.76  0.00
  WS02003067WS02003066    1.00   0.10  0.02  0.00  0.88  0.00  0.00  0.00  0.00  0.00
  WS02003069WS02003072    1.00   0.00  0.00  0.00  0.99  0.01  0.00  0.00  0.72  0.00
  WS02003072WS02003073    1.00   0.00  0.00  0.00  0.00  0.00  0.00  1.00  0.00  0.00
  WS02004401WS02004402    1.00   0.02  0.00  0.00  0.98  0.00  0.00  0.00  0.00  0.00
  WS02004402WS02004403    1.00   0.02  0.00  0.00  0.97  0.00  0.00  0.00  0.00  0.00
  WS02004403WS02004404    1.00   0.00  0.03  0.00  0.97  0.00  0.00  0.00  0.00  0.00
  WS02004404WS02004405    1.00   0.00  0.00  0.00  1.00  0.00  0.00  0.00  0.02  0.00
  WS02004405WS02004406    1.00   0.00  0.00  0.00  1.00  0.00  0.00  0.00  0.00  0.00
  WS02004406WS02004407    1.00   0.00  0.05  0.00  0.95  0.00  0.00  0.00  0.00  0.00
  WS02004407WS02004409    1.00   0.05  0.00  0.00  0.94  0.01  0.00  0.00  0.94  0.00
  WS02004409WS02004410    1.00   0.05  0.00  0.00  0.95  0.00  0.00  0.00  0.03  0.00
  WS02004410WS02004411    1.00   0.05  0.00  0.00  0.95  0.00  0.00  0.00  0.01  0.00
  WS02004411WS02004412    1.00   0.05  0.00  0.00  0.95  0.00  0.00  0.00  0.00  0.00
  WS02004412WS02004413    1.00   0.05  0.00  0.00  0.94  0.00  0.00  0.00  0.01  0.00
  WS02004413WS02003067    1.00   0.06  0.04  0.00  0.00  0.00  0.90  0.00  0.00  0.00
  WS02006109WS02006110    1.00   0.00  0.01  0.00  0.98  0.00  0.01  0.00  0.00  0.00
  WS02006110WS02006113    1.00   0.01  0.01  0.00  0.98  0.00  0.00  0.00  0.00  0.00
  WS02006111WS02006112    1.00   0.02  0.00  0.00  0.98  0.00  0.00  0.00  0.98  0.00
  WS02006112WS02006115    1.00   0.02  0.00  0.00  0.97  0.00  0.00  0.00  0.00  0.00
  WS02006113WS02006111    1.00   0.02  0.00  0.00  0.00  0.98  0.00  0.00  0.17  0.00
  WS02006115WS02006116    1.00   0.02  0.00  0.00  0.97  0.00  0.00  0.01  0.00  0.00
  WS02006116WS02004401    1.00   0.02  0.00  0.00  0.98  0.00  0.00  0.00  0.00  0.00
  WS02006228WS02006109    1.00   0.00  0.00  0.00  1.00  0.00  0.00  0.00  0.00  0.00
  WS02006229WS02006228    1.00   0.00  0.00  0.00  0.99  0.00  0.00  0.01  0.00  0.00
  WS02006230WS02006229    1.00   0.00  0.00  0.00  0.99  0.00  0.00  0.01  0.01  0.00
  WS02006231WS02006230    1.00   0.00  0.00  0.00  0.27  0.00  0.73  0.00  0.00  0.00
  WS02006232WS02006231    1.00   0.00  0.00  0.00  0.98  0.00  0.01  0.00  0.00  0.00
  WS02006234WS02006232    1.00   0.00  0.00  0.00  1.00  0.00  0.00  0.00  0.06  0.00
  WS02006235WS02006234    1.00   0.00  0.00  0.00  0.90  0.00  0.10  0.00  0.00  0.00
  WS02006238WS02006235    1.00   0.00  0.00  0.00  1.00  0.00  0.00  0.00  0.00  0.00
  WS02006239WS02006238    1.00   0.00  0.00  0.00  1.00  0.00  0.00  0.00  0.15  0.00
  WS02006240WS02006239    1.00   0.00  0.00  0.00  0.75  0.00  0.00  0.25  0.04  0.00
  WS02006242WS02006240    1.00   0.00  0.00  0.00  0.99  0.00  0.01  0.00  0.00  0.00
  WS02006243WS02006242    1.00   0.00  0.00  0.00  0.99  0.00  0.00  0.01  0.47  0.00
  WS02006245WS02006243    1.00   0.00  0.00  0.00  0.86  0.00  0.00  0.13  0.01  0.00
  WS02006247WS02006245    1.00   0.00  0.00  0.00  0.97  0.00  0.00  0.03  0.00  0.00
  WS02006248WS02006247    1.00   0.00  0.00  0.00  0.98  0.00  0.00  0.02  0.40  0.00
  WS02006249WS02006248    1.00   0.00  0.00  0.00  0.52  0.00  0.48  0.00  0.00  0.00
  WS02006251WS02006249    1.00   0.00  0.00  0.00  0.99  0.01  0.00  0.00  0.49  0.00
  WS02006252WS02006251    1.00   0.00  0.54  0.00  0.14  0.00  0.32  0.00  0.00  0.00
  WS02006256WS02006235    1.00   0.00  0.00  0.00  0.99  0.01  0.00  0.00  0.00  0.00
  WSF200WS02003060        1.00   0.00  0.13  0.00  0.15  0.72  0.00  0.00  0.47  0.00
  YS02001580YS02001583    1.00   0.24  0.54  0.00  0.21  0.00  0.00  0.00  0.64  0.00
  YS02001583YS02001586    1.00   0.41  0.32  0.00  0.26  0.00  0.00  0.00  0.64  0.00
  YS02001586YS02001590    1.00   0.13  0.00  0.00  0.45  0.04  0.00  0.38  0.36  0.00
  YS02001590YS02001593    1.00   0.13  0.01  0.00  0.14  0.00  0.73  0.00  0.00  0.00
  YS02001593YS02001596    1.00   0.13  0.00  0.00  0.15  0.01  0.00  0.70  0.02  0.00
  YS02001596YS02001600    1.00   0.14  0.00  0.00  0.21  0.01  0.00  0.64  0.04  0.00
  YS02001600YS02001601    1.00   0.13  0.01  0.00  0.86  0.00  0.00  0.00  0.59  0.00
  YS02001601YS02001602    1.00   0.13  0.01  0.00  0.87  0.00  0.00  0.00  0.00  0.00
  YS02001602YS02001605    1.00   0.13  0.00  0.00  0.86  0.00  0.00  0.00  0.00  0.00
  YS02001605YS02001607    1.00   0.14  0.00  0.00  0.86  0.00  0.00  0.00  0.00  0.00
  YS02001607YS02001610    1.00   0.13  0.01  0.00  0.86  0.00  0.00  0.00  0.01  0.00
  YS02001610YS02001613    1.00   0.13  0.00  0.00  0.87  0.00  0.00  0.00  0.00  0.00
  YS02001613YS02001616    1.00   0.13  0.00  0.00  0.87  0.00  0.00  0.00  0.00  0.00
  YS02001616YS02001619    1.00   0.13  0.00  0.00  0.87  0.00  0.00  0.00  0.00  0.00
  YS02001619YS02001622    1.00   0.13  0.00  0.00  0.87  0.00  0.00  0.00  0.28  0.00
  YS02001622YS02001625    1.00   0.13  0.00  0.00  0.87  0.00  0.00  0.00  0.04  0.00
  YS02001625YS02001629    1.00   0.13  0.05  0.00  0.18  0.00  0.64  0.00  0.00  0.00
  YS02001629YS02163301    1.00   0.15  0.01  0.00  0.84  0.00  0.00  0.00  0.00  0.00
  YS02001633YS02163601    1.00   0.00  0.01  0.00  0.99  0.00  0.00  0.00  0.15  0.00
  YS02001641YS02001644    1.00   0.00  0.01  0.00  0.99  0.00  0.00  0.00  0.00  0.00
  YS02001644YS02001647    1.00   0.00  0.17  0.00  0.83  0.00  0.00  0.00  0.00  0.00
  YS02001647YS02001649    1.00   0.00  0.17  0.00  0.57  0.26  0.00  0.00  0.54  0.00
  YS02001649YS02001757    1.00   0.00  0.00  0.00  0.86  0.14  0.00  0.00  0.41  0.00
  YS02001652YS02001649    1.00   0.00  0.00  0.00  0.97  0.03  0.00  0.00  0.72  0.00
  YS02001655YS02001652    1.00   0.00  0.00  0.00  0.21  0.01  0.00  0.78  0.05  0.00
  YS02001658YS02001655    1.00   0.00  0.14  0.00  0.69  0.17  0.00  0.00  0.66  0.00
  YS02001661YS02001658    1.00   0.14  0.00  0.00  0.53  0.33  0.00  0.00  0.66  0.00
  YS02001664YS02001661    1.00   0.13  0.00  0.00  0.79  0.09  0.00  0.00  0.84  0.00
  YS02001745YS02001748    1.00   0.00  0.00  0.00  0.13  0.00  0.00  0.87  0.04  0.00
  YS02001748YS02001751    1.00   0.00  0.00  0.00  0.85  0.15  0.00  0.00  0.73  0.00
  YS02001751YS02001754    1.00   0.00  0.00  0.00  0.19  0.00  0.00  0.80  0.03  0.00
  YS02001754YS02001757    1.00   0.00  0.00  0.00  1.00  0.00  0.00  0.00  0.78  0.00
  YS02001757CaochengTiaoxuchi    1.00   0.00  0.00  0.00  1.00  0.00  0.00  0.00  0.62  0.00
  YS02001759YS02001757    1.00   0.00  0.00  0.00  1.00  0.00  0.00  0.00  0.50  0.00
  YS02001762YS02001759    1.00   0.00  0.00  0.00  1.00  0.00  0.00  0.00  0.05  0.00
  YS02001765YS02001762    1.00   0.00  0.00  0.00  1.00  0.00  0.00  0.00  0.64  0.00
  YS02001767YS02001765    1.00   0.00  0.00  0.00  1.00  0.00  0.00  0.00  0.01  0.00
  YS02001770YS02001767    1.00   0.00  0.00  0.00  1.00  0.00  0.00  0.00  0.00  0.00
  YS02001774YS02001770    1.00   0.00  0.13  0.00  0.70  0.00  0.16  0.00  0.03  0.00
  YS02001779YS02001774    1.00   0.00  0.00  0.00  1.00  0.00  0.00  0.00  0.74  0.00
  YS02001783YS02001784    1.00   0.00  0.18  0.00  0.82  0.00  0.00  0.00  0.55  0.00
  YS02001784YS02001785    1.00   0.00  0.00  0.00  1.00  0.00  0.00  0.00  0.16  0.00
  YS02001786YS02001788    1.00   0.00  0.00  0.00  0.80  0.20  0.00  0.00  0.00  0.00
  YS02001788YS02001790    1.00   0.00  0.00  0.00  0.21  0.79  0.00  0.00  0.79  0.00
  YS02001790YS02001791    1.00   0.00  0.00  0.00  0.01  0.99  0.00  0.00  0.16  0.00
  YS02001791YS02001793    1.00   0.00  0.00  0.00  0.00  1.00  0.00  0.00  0.01  0.00
  YS02001793JiankangQianchi    1.00   0.00  0.00  0.00  0.99  0.01  0.00  0.00  0.93  0.00
  YS02001882YS02001884    1.00   0.15  0.01  0.00  0.84  0.00  0.00  0.00  0.00  0.00
  YS02001884YS02001887    1.00   0.06  0.05  0.00  0.89  0.00  0.00  0.00  0.00  0.00
  YS02001887YS02001890    1.00   0.00  0.00  0.00  0.97  0.00  0.03  0.00  0.00  0.00
  YS02001890YS02001895    1.00   0.00  0.16  0.00  0.84  0.00  0.00  0.00  0.00  0.00
  YS02001895YS02001898    1.00   0.16  0.00  0.00  0.82  0.00  0.02  0.00  0.00  0.00
  YS02001898YS02001901    1.00   0.16  0.00  0.00  0.84  0.00  0.00  0.00  0.01  0.00
  YS02001901YS02001904    1.00   0.16  0.00  0.00  0.84  0.00  0.00  0.00  0.00  0.00
  YS02001904YS02001907    1.00   0.00  0.16  0.00  0.84  0.00  0.00  0.00  0.00  0.00
  YS02001907YS02006553    1.00   0.00  0.02  0.00  0.98  0.00  0.00  0.00  0.00  0.00
  YS02001910YS02001907    1.00   0.00  0.00  0.00  0.97  0.00  0.00  0.03  0.12  0.00
  YS02001915YS02001910    1.00   0.00  0.00  0.00  0.97  0.03  0.00  0.00  0.15  0.00
  YS02001918YS02001915    1.00   0.00  0.01  0.00  0.98  0.02  0.00  0.00  0.73  0.00
  YS02001920YS02001918    1.00   0.00  0.01  0.00  0.99  0.00  0.00  0.00  0.00  0.00
  YS02001923YS02001920    1.00   0.00  0.00  0.00  1.00  0.00  0.00  0.00  0.91  0.00
  YS02001926YS02001923    1.00   0.00  0.07  0.00  0.07  0.00  0.85  0.00  0.00  0.00
  YS02001929YS02001926    1.00   0.00  0.13  0.00  0.87  0.00  0.00  0.00  0.81  0.00
  YS02006553YS02006556    1.00   0.01  0.00  0.00  0.99  0.00  0.00  0.00  0.03  0.00
  YS02006556YS02006558    1.00   0.00  0.00  0.00  1.00  0.00  0.00  0.00  0.00  0.00
  YS02006558YS02006561    1.00   0.18  0.00  0.00  0.07  0.76  0.00  0.00  0.18  0.00
  YS02006561YS02001783    1.00   0.18  0.00  0.00  0.10  0.72  0.00  0.00  0.67  0.00
  YS02163301YS02001633    1.00   0.00  0.15  0.00  0.85  0.00  0.00  0.00  0.00  0.00
  YS02163601YS02164001    1.00   0.00  0.08  0.00  0.92  0.00  0.00  0.00  0.00  0.00
  YS02164001YS02001641    1.00   0.01  0.07  0.00  0.92  0.00  0.00  0.00  0.05  0.00
  
  
  *************************
  Conduit Surcharge Summary
  *************************
  
  ----------------------------------------------------------------------------
                                                           Hours        Hours 
                         --------- Hours Full --------   Above Full   Capacity
  Conduit                Both Ends  Upstream  Dnstream   Normal Flow   Limited
  ----------------------------------------------------------------------------
  WS02003072WS02003073        0.01      0.01      0.01      1.49         0.01
  WS02004403WS02004404        0.01      0.01      0.01      0.01         0.01
  WS02004404WS02004405        0.01      0.01      0.01      3.76         0.01
  WS02004405WS02004406        0.01      0.01      0.01      0.76         0.01
  WS02006109WS02006110        0.71      0.71      2.10      0.93         0.01
  WS02006110WS02006113        0.01      0.01      2.09      0.01         0.01
  WS02006111WS02006112        0.01      0.01      2.34      0.01         0.01
  WS02006112WS02006115        0.01      0.01      1.10      0.01         0.01
  WS02006228WS02006109        2.08      2.10      2.08      2.57         2.07
  WS02006229WS02006228        2.07      2.08      2.07      2.25         2.06
  WS02006230WS02006229        2.13      2.21      2.13      4.78         2.13
  WS02006231WS02006230        0.73      0.73      1.06      4.26         0.01
  WS02006232WS02006231        0.97      0.97      2.09      1.07         0.01
  WS02006234WS02006232        1.99      1.99      2.09      1.06         1.03
  WS02006235WS02006234        1.38      1.40      2.00      3.99         0.03
  WS02006238WS02006235        2.03      2.03      2.09      0.01         0.01
  WS02006239WS02006238        2.06      2.09      2.07      2.13         1.81
  WS02006240WS02006239        2.04      2.07      2.04      2.14         1.68
  WS02006242WS02006240        2.07      2.07      2.11      2.28         0.01
  WS02006243WS02006242        2.07      2.07      2.08      0.01         0.08
  WS02006245WS02006243        2.06      2.06      2.07      1.36         1.32
  WS02006247WS02006245        2.06      2.06      2.06      3.60         2.04
  WS02006248WS02006247        2.06      2.06      2.06      0.01         0.08
  WS02006249WS02006248        2.05      2.06      2.05      3.56         0.01
  WS02006251WS02006249        2.05      2.05      2.05      2.25         1.94
  WS02006252WS02006251        2.31      2.31      2.31      2.31         0.01
  WS02006256WS02006235        4.04      4.11      6.72      1.51         0.01
  YS02001580YS02001583        0.74      0.74      0.80      0.01         0.01
  YS02001583YS02001586        0.75      0.75      0.88      0.01         0.01
  YS02001586YS02001590        0.89      0.89      0.96      0.01         0.01
  YS02001590YS02001593        0.96      0.96      0.98      1.00         0.01
  YS02001593YS02001596        0.98      0.98      1.09      0.01         0.01
  YS02001596YS02001600        1.15      1.15      1.24      0.01         0.01
  YS02001600YS02001601        1.29      1.29      1.54      0.01         0.01
  YS02001601YS02001602        1.45      1.45      1.58      1.23         0.01
  YS02001602YS02001605        1.40      1.40      1.45      2.38         0.01
  YS02001605YS02001607        1.36      1.40      1.36      1.48         1.35
  YS02001607YS02001610        0.97      0.97      0.99      0.01         0.01
  YS02001610YS02001613        0.96      0.96      0.99      0.01         0.01
  YS02001613YS02001616        0.92      0.92      0.96      0.01         0.01
  YS02001616YS02001619        0.90      0.90      0.92      0.07         0.08
  YS02001619YS02001622        0.90      0.90      0.90      0.93         0.84
  YS02001622YS02001625        0.90      0.90      1.10      0.01         0.01
  YS02001625YS02001629        0.85      0.85      1.10      0.01         0.01
  YS02001629YS02163301        1.10      1.10      1.11      0.07         0.11
  YS02001633YS02163601        1.13      1.13      1.16      0.24         0.24
  YS02001641YS02001644        1.06      1.08      1.06      1.62         1.04
  YS02001644YS02001647        0.84      0.84      1.06      0.01         0.01
  YS02001647YS02001649        0.84      0.84      0.98      0.01         0.01
  YS02001649YS02001757        0.98      0.98      1.04      0.07         0.04
  YS02001652YS02001649        0.80      0.80      0.98      0.01         0.01
  YS02001655YS02001652        0.61      0.61      0.78      0.01         0.01
  YS02001658YS02001655        0.36      0.36      0.61      0.01         0.01
  YS02001661YS02001658        0.12      0.12      0.36      0.01         0.01
  YS02001664YS02001661        0.01      0.01      0.17      0.01         0.01
  YS02001745YS02001748        0.01      0.01      0.29      0.01         0.01
  YS02001748YS02001751        0.33      0.33      0.48      0.01         0.01
  YS02001751YS02001754        0.48      0.48      0.70      0.01         0.01
  YS02001754YS02001757        0.75      0.75      1.04      0.01         0.01
  YS02001757CaochengTiaoxuchi        1.04      1.04      2.08      0.39         0.39
  YS02001759YS02001757        0.97      0.97      1.04      0.01         0.01
  YS02001762YS02001759        0.93      0.93      0.97      0.01         0.01
  YS02001765YS02001762        0.88      0.88      0.93      0.01         0.01
  YS02001767YS02001765        0.85      0.85      0.88      0.01         0.02
  YS02001770YS02001767        0.85      0.85      0.85      0.62         0.51
  YS02001774YS02001770        0.82      0.82      0.91      0.01         0.01
  YS02001779YS02001774        0.69      0.69      0.91      0.01         0.01
  YS02001783YS02001784        0.61      0.64      0.61      0.80         0.61
  YS02001784YS02001785        0.49      0.61      0.49      1.05         0.49
  YS02001786YS02001788        0.01      0.49      0.01      0.92         0.01
  YS02001790YS02001791        0.01      0.01      0.01      0.60         0.01
  YS02001793JiankangQianchi        0.01      0.01      7.52      0.01         0.01
  YS02001882YS02001884        0.58      0.58      0.59      0.01         0.01
  YS02001884YS02001887        0.61      0.61      0.63      0.01         0.01
  YS02001887YS02001890        0.64      0.64      0.65      0.18         0.01
  YS02001890YS02001895        0.57      0.57      0.67      0.01         0.01
  YS02001895YS02001898        0.56      0.56      0.57      0.01         0.01
  YS02001898YS02001901        0.57      0.57      0.61      0.01         0.01
  YS02001901YS02001904        0.60      0.60      0.61      0.01         0.01
  YS02001904YS02001907        0.60      0.60      0.90      0.01         0.01
  YS02001907YS02006553        1.07      1.07      1.14      0.01         0.01
  YS02001910YS02001907        0.67      0.67      0.88      0.05         0.05
  YS02001915YS02001910        0.58      0.58      0.67      0.01         0.01
  YS02001918YS02001915        0.48      0.48      0.58      0.01         0.01
  YS02001920YS02001918        0.48      0.48      0.50      0.01         0.01
  YS02001923YS02001920        0.44      0.44      0.50      0.01         0.01
  YS02001926YS02001923        0.19      0.19      0.23      0.01         0.01
  YS02001929YS02001926        0.07      0.07      0.23      0.01         0.01
  YS02006553YS02006556        0.77      0.77      0.90      0.01         0.01
  YS02006556YS02006558        0.84      0.84      0.91      0.01         0.01
  YS02006558YS02006561        0.52      0.76      0.52      1.01         0.52
  YS02006561YS02001783        0.45      0.45      0.64      0.01         0.01
  YS02163301YS02001633        1.11      1.11      1.15      0.01         0.01
  YS02163601YS02164001        1.08      1.08      1.16      0.08         0.01
  YS02164001YS02001641        1.08      1.08      1.08      0.67         0.61
  
  
  ***************
  Pumping Summary
  ***************
  
  ---------------------------------------------------------------------------------------------------------
                                                  Min       Avg       Max     Total     Power    % Time Off
                        Percent   Number of      Flow      Flow      Flow    Volume     Usage    Pump Curve
  Pump                 Utilized   Start-Ups       LPS       LPS       LPS  10^6 ltr     Kw-hr    Low   High
  ---------------------------------------------------------------------------------------------------------
  CC-R1                   21.15           5      0.00    683.00    683.00     4.159     78.95    0.0   14.9
  CC-R2                   18.28           6      0.00    683.00    683.00     3.596     68.42    0.0   19.0
  CC-S1                   42.95           6      0.00    200.00    200.00     2.474     13.87    0.0    0.0
  CC-S2                   32.00           8      0.00    200.00    200.00     1.843     10.19    0.0    0.0
  JK-R1                   10.09          17      0.00   1000.00   1000.00     2.906     35.06    0.0    0.0
  JK-R2                    0.16           1      0.00   1000.00   1000.00     0.047      0.36    0.0    0.0
  JK-S                    18.70          32      0.00    300.00    300.00     1.616     21.66    0.0    0.0
  

  Analysis begun on:  Mon Feb 24 09:48:50 2025
  Analysis ended on:  Mon Feb 24 09:48:52 2025
  Total elapsed time: 00:00:02