
  EPA STORM WATER MANAGEMENT MODEL - VERSION 5.2 (Build 5.2.4)
  PYSWMM TOOLKIT API - VERSION v1.0 (2023-11-27)
  ------------------------------------------------------------

  WARNING 04: minimum elevation drop used for Conduit WS02004404WS02004405
  WARNING 03: negative offset ignored for Link YS02001904YS02001907
  
  ****************
  Analysis Options
  ****************
  Flow Units ............... LPS
  Process Models:
    Rainfall/Runoff ........ YES
    RDII ................... NO
    Snowmelt ............... NO
    Groundwater ............ NO
    Flow Routing ........... YES
    Ponding Allowed ........ NO
    Water Quality .......... NO
  Infiltration Method ...... HORTON
  Flow Routing Method ...... DYNWAVE
  Surcharge Method ......... EXTRAN
  Starting Date ............ 08/28/2015 08:00:00
  Ending Date .............. 08/28/2015 16:00:00
  Antecedent Dry Days ...... 8.0
  Report Time Step ......... 00:01:00
  Wet Time Step ............ 00:01:00
  Dry Time Step ............ 00:01:00
  Routing Time Step ........ 30.00 sec
  Variable Time Step ....... YES
  Maximum Trials ........... 8
  Number of Threads ........ 4
  Head Tolerance ........... 0.001500 m
  
  
  **************************        Volume         Depth
  Runoff Quantity Continuity     hectare-m            mm
  **************************     ---------       -------
  Total Precipitation ......         2.185        65.883
  Evaporation Loss .........         0.000         0.000
  Infiltration Loss ........         0.099         2.978
  Surface Runoff ...........         2.054        61.926
  Final Storage ............         0.033         0.994
  Continuity Error (%) .....        -0.024
  
  
  **************************        Volume        Volume
  Flow Routing Continuity        hectare-m      10^6 ltr
  **************************     ---------     ---------
  Dry Weather Inflow .......         0.025         0.251
  Wet Weather Inflow .......         2.054        20.542
  Groundwater Inflow .......         0.000         0.000
  RDII Inflow ..............         0.000         0.000
  External Inflow ..........         0.083         0.834
  External Outflow .........         1.526        15.259
  Flooding Loss ............         0.704         7.040
  Evaporation Loss .........         0.000         0.000
  Exfiltration Loss ........         0.000         0.000
  Initial Stored Volume ....         0.243         2.431
  Final Stored Volume ......         0.182         1.819
  Continuity Error (%) .....        -0.254
  
  
  *************************
  Highest Continuity Errors
  *************************
  Node YS02001583 (-5.28%)
  Node YS02001884 (5.07%)
  Node WS02006256 (-1.53%)
  
  
  ***************************
  Time-Step Critical Elements
  ***************************
  Link WS02006252WS02006251 (48.68%)
  Link WS02006238WS02006235 (14.16%)
  Link WS02004404WS02004405 (10.14%)
  Link YS02001791YS02001793 (6.61%)
  Link WS02003066WSF200 (6.13%)
  
  
  ********************************
  Highest Flow Instability Indexes
  ********************************
  Link WS02006113WS02006111 (42)
  Link WS02006111WS02006112 (20)
  Link WS02006252WS02006251 (14)
  Link WS02006238WS02006235 (14)
  Link WS02006256WS02006235 (14)
  
  
  *********************************
  Most Frequent Nonconverging Nodes
  *********************************
  Node CC-1 (11.56%)
  Node CC-2 (11.56%)
  Node JK-1 (11.56%)
  Node JK-2 (11.56%)
  Node WSC (11.56%)
  
  
  *************************
  Routing Time Step Summary
  *************************
  Minimum Time Step           :     0.01 sec
  Average Time Step           :     1.90 sec
  Maximum Time Step           :     7.04 sec
  % of Time in Steady State   :     0.00
  Average Iterations per Step :     3.05
  % of Steps Not Converging   :    11.56
  Time Step Frequencies       :
     30.000 - 13.228 sec      :     0.00 %
     13.228 -  5.833 sec      :     6.62 %
      5.833 -  2.572 sec      :    21.33 %
      2.572 -  1.134 sec      :    18.39 %
      1.134 -  0.500 sec      :    53.66 %
  
  
  ***************************
  Subcatchment Runoff Summary
  ***************************
  
  ------------------------------------------------------------------------------------------------------------------------------
                            Total      Total      Total      Total     Imperv       Perv      Total       Total     Peak  Runoff
                           Precip      Runon       Evap      Infil     Runoff     Runoff     Runoff      Runoff   Runoff   Coeff
  Subcatchment                 mm         mm         mm         mm         mm         mm         mm    10^6 ltr      LPS
  ------------------------------------------------------------------------------------------------------------------------------
  sub60                     65.88       0.00       0.00       1.79      56.78       6.12      62.90        0.83   594.71   0.955
  sub61                     65.88       0.00       0.00       2.59      53.55       8.61      62.17        1.14   824.76   0.944
  sub62                     65.88       0.00       0.00       1.19      59.33       4.08      63.41        1.74  1161.25   0.962
  sub63                     65.88       0.00       0.00       4.78      45.81      14.33      60.14        1.37   925.56   0.913
  sub64                     65.88       0.00       0.00       2.42      54.80       7.47      62.26        1.50   940.61   0.945
  sub65                     65.88       0.00       0.00       2.09      56.07       6.47      62.54        1.72  1051.38   0.949
  sub66                     65.88       0.00       0.00       5.94      45.70      13.17      58.87        2.75  1367.79   0.894
  sub67                     65.88       0.00       0.00       1.15      59.37       4.12      63.49        1.18   896.05   0.964
  sub68                     65.88       0.00       0.00       2.15      55.47       7.08      62.55        1.72  1192.09   0.949
  sub69                     65.88       0.00       0.00       1.91      55.89       7.98      63.87        2.36  1399.62   0.969
  sub70                     65.88       0.00       0.00       6.40      43.32      16.00      59.32        1.71   768.00   0.900
  sub71                     65.88       0.00       0.00       1.22      59.29       4.05      63.34        1.66  1017.18   0.961
  sub72                     65.88       0.00       0.00       1.09      59.87       3.53      63.40        0.87   492.35   0.962
  
  
  ******************
  Node Depth Summary
  ******************
  
  ---------------------------------------------------------------------------------
                                 Average  Maximum  Maximum  Time of Max    Reported
                                   Depth    Depth      HGL   Occurrence   Max Depth
  Node                 Type       Meters   Meters   Meters  days hr:min      Meters
  ---------------------------------------------------------------------------------
  WS02003060           JUNCTION     0.23     0.38     5.31     0  02:38        0.38
  WS02003066           JUNCTION     0.19     0.30     5.85     0  02:37        0.30
  WS02003067           JUNCTION     0.50     0.70     6.02     0  02:37        0.70
  WS02003069           JUNCTION     0.26     0.43     5.01     0  02:39        0.43
  WS02003072           JUNCTION     0.32     0.50     4.87     0  02:39        0.50
  WS02003073           JUNCTION     0.18     0.30     4.36     0  02:39        0.30
  WS02004401           JUNCTION     0.58     0.85     6.85     0  02:35        0.85
  WS02004402           JUNCTION     0.61     0.88     6.84     0  02:35        0.88
  WS02004403           JUNCTION     0.64     0.89     6.82     0  02:36        0.89
  WS02004404           JUNCTION     0.71     0.96     6.81     0  02:36        0.96
  WS02004405           JUNCTION     0.71     0.96     6.81     0  02:36        0.96
  WS02004406           JUNCTION     0.72     0.96     6.79     0  02:36        0.96
  WS02004407           JUNCTION     0.17     0.30     6.61     0  02:36        0.30
  WS02004409           JUNCTION     0.39     0.67     6.44     0  02:36        0.67
  WS02004410           JUNCTION     0.41     0.68     6.40     0  02:37        0.68
  WS02004411           JUNCTION     0.43     0.69     6.37     0  02:37        0.69
  WS02004412           JUNCTION     0.46     0.70     6.34     0  02:37        0.70
  WS02004413           JUNCTION     0.62     0.86     6.33     0  02:37        0.86
  WS02006109           JUNCTION     0.64     1.38     8.00     0  02:26        0.99
  WS02006110           JUNCTION     0.64     1.74     8.32     0  02:26        0.94
  WS02006111           JUNCTION     0.17     0.29     6.99     0  02:47        0.29
  WS02006112           JUNCTION     0.73     1.09     6.97     0  02:27        1.07
  WS02006113           JUNCTION     0.26     0.46     7.35     0  02:39        0.46
  WS02006115           JUNCTION     0.46     0.75     6.89     0  02:34        0.75
  WS02006116           JUNCTION     0.55     0.83     6.87     0  02:35        0.83
  WS02006228           JUNCTION     0.63     1.36     8.01     0  02:26        1.09
  WS02006229           JUNCTION     0.60     1.30     8.00     0  02:44        1.11
  WS02006230           JUNCTION     0.59     1.56     8.31     0  02:44        1.31
  WS02006231           JUNCTION     0.41     1.49     8.61     0  02:15        0.98
  WS02006232           JUNCTION     0.54     1.36     8.40     0  02:15        1.19
  WS02006234           JUNCTION     0.46     1.33     8.49     0  02:15        1.28
  WS02006235           JUNCTION     0.50     1.48     8.64     0  02:15        1.42
  WS02006238           JUNCTION     0.53     1.52     8.67     0  02:15        1.47
  WS02006239           JUNCTION     0.49     1.49     8.70     0  02:15        1.46
  WS02006240           JUNCTION     0.45     1.45     8.74     0  02:15        1.40
  WS02006242           JUNCTION     0.52     1.51     8.78     0  02:26        1.42
  WS02006243           JUNCTION     0.43     1.38     8.80     0  02:26        1.25
  WS02006245           JUNCTION     0.43     1.30     8.78     0  02:26        1.17
  WS02006247           JUNCTION     0.46     1.25     8.75     0  02:26        1.20
  WS02006248           JUNCTION     0.42     1.10     8.69     0  02:00        1.09
  WS02006249           JUNCTION     0.46     1.09     8.69     0  01:59        1.09
  WS02006251           JUNCTION     0.46     1.58     9.25     0  02:00        1.58
  WS02006252           JUNCTION     0.34     1.50     9.74     0  00:00        1.17
  WS02006256           JUNCTION     1.02     2.35     9.28     0  00:00        2.35
  WSF200               JUNCTION     0.17     0.29     5.52     0  02:37        0.29
  YS02001580           JUNCTION     0.08     1.05     9.59     0  01:54        0.77
  YS02001583           JUNCTION     0.12     1.14     9.64     0  01:54        0.82
  YS02001586           JUNCTION     0.18     1.13     9.30     0  01:54        1.13
  YS02001590           JUNCTION     0.27     1.40     9.26     0  01:51        1.37
  YS02001593           JUNCTION     0.21     1.31     9.18     0  01:54        1.29
  YS02001596           JUNCTION     0.28     1.69     9.10     0  01:54        1.65
  YS02001600           JUNCTION     0.33     1.87     9.00     0  01:54        1.86
  YS02001601           JUNCTION     0.52     2.06     8.90     0  01:52        2.06
  YS02001602           JUNCTION     0.44     1.87     8.77     0  01:53        1.87
  YS02001605           JUNCTION     0.41     1.78     8.68     0  01:53        1.77
  YS02001607           JUNCTION     0.41     1.68     8.53     0  01:53        1.64
  YS02001610           JUNCTION     0.45     1.68     8.48     0  01:53        1.68
  YS02001613           JUNCTION     0.41     1.70     8.54     0  01:53        1.67
  YS02001616           JUNCTION     0.34     1.61     8.52     0  01:53        1.61
  YS02001619           JUNCTION     0.32     1.61     8.54     0  01:53        1.61
  YS02001622           JUNCTION     0.31     1.61     8.51     0  01:53        1.58
  YS02001625           JUNCTION     0.58     1.78     8.38     0  01:53        1.78
  YS02001629           JUNCTION     0.42     1.85     8.40     0  01:53        1.85
  YS02001633           JUNCTION     0.50     2.02     8.47     0  01:57        1.99
  YS02001641           JUNCTION     0.49     1.95     8.39     0  01:57        1.94
  YS02001644           JUNCTION     0.48     1.92     8.35     0  01:57        1.92
  YS02001647           JUNCTION     0.28     1.80     8.41     0  01:58        1.74
  YS02001649           JUNCTION     0.32     2.03     8.42     0  01:58        1.97
  YS02001652           JUNCTION     0.22     1.91     8.51     0  01:59        1.80
  YS02001655           JUNCTION     0.17     1.96     8.81     0  01:58        1.63
  YS02001658           JUNCTION     0.12     1.96     9.10     0  01:58        1.53
  YS02001661           JUNCTION     0.15     1.55     8.95     0  01:59        1.55
  YS02001664           JUNCTION     0.05     0.68     8.61     0  01:59        0.64
  YS02001745           JUNCTION     0.06     0.90     8.42     0  01:58        0.83
  YS02001748           JUNCTION     0.12     2.15     9.22     0  01:58        1.26
  YS02001751           JUNCTION     0.14     1.98     8.86     0  01:58        1.43
  YS02001754           JUNCTION     0.19     2.02     8.63     0  01:58        1.69
  YS02001757           JUNCTION     0.35     2.14     8.41     0  01:58        2.02
  YS02001759           JUNCTION     0.29     2.07     8.44     0  01:58        2.02
  YS02001762           JUNCTION     0.28     2.10     8.50     0  01:58        2.00
  YS02001765           JUNCTION     0.26     2.07     8.52     0  01:58        1.96
  YS02001767           JUNCTION     0.26     2.01     8.50     0  01:58        1.93
  YS02001770           JUNCTION     0.27     1.95     8.44     0  01:57        1.95
  YS02001774           JUNCTION     0.33     2.05     8.47     0  01:57        2.05
  YS02001779           JUNCTION     0.18     1.68     8.37     0  01:56        1.68
  YS02001783           JUNCTION     0.21     1.32     7.46     0  01:56        1.24
  YS02001784           JUNCTION     0.23     1.19     7.26     0  01:56        1.12
  YS02001786           JUNCTION     0.19     0.92     6.95     0  01:56        0.88
  YS02001788           JUNCTION     0.14     0.63     6.60     0  02:00        0.62
  YS02001790           JUNCTION     0.16     0.73     6.37     0  01:59        0.72
  YS02001791           JUNCTION     0.10     0.44     5.91     0  01:59        0.44
  YS02001793           JUNCTION     0.06     0.30     5.13     0  02:11        0.30
  YS02001882           JUNCTION     0.28     1.83     8.55     0  01:55        1.65
  YS02001884           JUNCTION     0.37     1.90     8.52     0  01:55        1.76
  YS02001887           JUNCTION     0.45     1.91     8.44     0  01:55        1.84
  YS02001890           JUNCTION     0.48     1.81     8.32     0  01:55        1.81
  YS02001895           JUNCTION     0.25     1.75     8.50     0  01:55        1.56
  YS02001898           JUNCTION     0.26     1.68     8.42     0  01:55        1.56
  YS02001901           JUNCTION     0.37     1.70     8.31     0  01:55        1.67
  YS02001904           JUNCTION     0.35     1.64     8.27     0  01:56        1.63
  YS02001907           JUNCTION     0.68     1.96     8.25     0  01:56        1.96
  YS02001910           JUNCTION     0.47     1.97     8.48     0  01:57        1.91
  YS02001915           JUNCTION     0.28     2.00     8.72     0  01:55        1.81
  YS02001918           JUNCTION     0.15     1.81     8.88     0  01:57        1.47
  YS02001920           JUNCTION     0.23     2.14     9.15     0  01:57        1.54
  YS02001923           JUNCTION     0.11     2.03     9.29     0  01:57        1.31
  YS02001926           JUNCTION     0.15     1.90     9.35     0  01:57        1.14
  YS02001929           JUNCTION     0.08     1.78     9.47     0  01:57        0.90
  YS02006553           JUNCTION     0.68     1.99     8.27     0  01:56        1.98
  YS02006556           JUNCTION     0.65     1.98     8.29     0  01:56        1.96
  YS02006558           JUNCTION     0.70     2.02     8.29     0  01:56        2.00
  YS02006561           JUNCTION     0.13     1.03     7.69     0  01:56        0.91
  YS02163301           JUNCTION     0.44     1.92     8.43     0  01:58        1.91
  YS02163601           JUNCTION     0.54     2.03     8.43     0  01:57        2.02
  YS02164001           JUNCTION     0.47     1.95     8.41     0  01:57        1.95
  CC-1                 OUTFALL      0.00     0.00     0.00     0  00:00        0.00
  CC-2                 OUTFALL      0.00     0.00     0.00     0  00:00        0.00
  JK-1                 OUTFALL      0.00     0.00     0.00     0  00:00        0.00
  JK-2                 OUTFALL      0.00     0.00     0.00     0  00:00        0.00
  WSC                  OUTFALL      0.18     0.30     0.97     0  02:40        0.30
  CC-storage           STORAGE      0.91     1.73     7.23     0  02:30        1.73
  JK-storage           STORAGE      2.79     4.24     5.04     0  02:05        4.22
  
  
  *******************
  Node Inflow Summary
  *******************
  
  -------------------------------------------------------------------------------------------------
                                  Maximum  Maximum                  Lateral       Total        Flow
                                  Lateral    Total  Time of Max      Inflow      Inflow     Balance
                                   Inflow   Inflow   Occurrence      Volume      Volume       Error
  Node                 Type           LPS      LPS  days hr:min    10^6 ltr    10^6 ltr     Percent
  -------------------------------------------------------------------------------------------------
  WS02003060           JUNCTION     16.53   552.30     0  02:38       0.476        5.59       0.041
  WS02003066           JUNCTION      0.00   535.54     0  02:37           0        5.11       0.028
  WS02003067           JUNCTION      0.00   535.48     0  02:37           0        5.12       0.083
  WS02003069           JUNCTION      0.32   552.42     0  02:38     0.00922        5.59       0.072
  WS02003072           JUNCTION      0.00   552.11     0  02:39           0        5.59       0.126
  WS02003073           JUNCTION      1.82   553.76     0  02:39      0.0524        5.63       0.102
  WS02004401           JUNCTION      0.00   538.63     0  02:17           0        5.22       0.199
  WS02004402           JUNCTION      0.00   537.42     0  02:17           0        5.21       0.202
  WS02004403           JUNCTION      0.00   537.00     0  02:17           0         5.2       0.196
  WS02004404           JUNCTION      0.16   536.69     0  02:35     0.00467        5.19       0.169
  WS02004405           JUNCTION      0.04   536.47     0  02:36      0.0011        5.18       0.239
  WS02004406           JUNCTION      0.00   536.72     0  02:36           0        5.17       0.405
  WS02004407           JUNCTION      0.00   536.42     0  02:36           0        5.15       0.024
  WS02004409           JUNCTION      0.00   536.35     0  02:36           0        5.15       0.055
  WS02004410           JUNCTION      0.00   536.23     0  02:36           0        5.15       0.087
  WS02004411           JUNCTION      0.00   535.90     0  02:37           0        5.14       0.111
  WS02004412           JUNCTION      0.00   535.81     0  02:37           0        5.14       0.148
  WS02004413           JUNCTION      0.00   535.61     0  02:37           0        5.13       0.261
  WS02006109           JUNCTION      1.23   560.35     0  02:45      0.0354        5.27       0.175
  WS02006110           JUNCTION      0.00   559.57     0  02:45           0        5.26       0.141
  WS02006111           JUNCTION      0.00   561.63     0  03:35           0        5.25       0.012
  WS02006112           JUNCTION      0.00   544.27     0  02:47           0        5.25       0.338
  WS02006113           JUNCTION      0.00   570.84     0  02:26           0        5.25       0.047
  WS02006115           JUNCTION      0.00   551.60     0  02:47           0        5.23       0.128
  WS02006116           JUNCTION      0.00   539.49     0  02:25           0        5.22       0.115
  WS02006228           JUNCTION      0.00   558.31     0  02:45           0        5.24       0.069
  WS02006229           JUNCTION      0.00   557.87     0  02:45           0        5.24       0.112
  WS02006230           JUNCTION     10.28   590.73     0  02:26       0.296        5.24       0.048
  WS02006231           JUNCTION      0.00   572.55     0  02:26           0        4.95       0.017
  WS02006232           JUNCTION      0.00   571.63     0  02:26           0        4.96       0.221
  WS02006234           JUNCTION      0.00   567.26     0  02:26           0        4.95      -0.269
  WS02006235           JUNCTION      0.00   563.11     0  02:26           0        5.06       0.276
  WS02006238           JUNCTION      0.00   426.72     0  02:40           0        4.01      -0.159
  WS02006239           JUNCTION      0.00   427.54     0  03:30           0        3.95      -0.072
  WS02006240           JUNCTION      0.00   426.28     0  03:30           0         3.9      -0.045
  WS02006242           JUNCTION      0.00   425.87     0  03:30           0        3.87       0.027
  WS02006243           JUNCTION      0.00   424.95     0  03:30           0        3.86      -0.030
  WS02006245           JUNCTION      0.00   424.21     0  03:30           0        3.87       0.393
  WS02006247           JUNCTION      0.00   424.58     0  03:30           0        3.88       0.040
  WS02006248           JUNCTION      0.00   425.91     0  03:30           0        3.88       0.102
  WS02006249           JUNCTION      0.00   459.02     0  00:00           0        4.12       0.368
  WS02006251           JUNCTION      0.08   411.05     0  02:00     0.00222        4.12      -0.042
  WS02006252           JUNCTION      0.00   400.00     0  00:00           0        4.11      -0.091
  WS02006256           JUNCTION      0.00   300.00     0  00:00           0        1.56      -1.505
  WSF200               JUNCTION      0.00   535.57     0  02:38           0        5.11       0.009
  YS02001580           JUNCTION      0.00   134.23     0  01:54           0     0.00443      -0.487
  YS02001583           JUNCTION      0.00   182.22     0  01:54           0      0.0154      -5.017
  YS02001586           JUNCTION    768.00   768.00     0  02:04        1.71        1.73       0.077
  YS02001590           JUNCTION      0.00   318.11     0  02:21           0        1.32      -0.032
  YS02001593           JUNCTION      0.00   318.01     0  02:21           0        1.32       0.002
  YS02001596           JUNCTION      0.00   318.08     0  02:21           0        1.32      -0.009
  YS02001600           JUNCTION      0.00   318.04     0  02:21           0        1.32       0.006
  YS02001601           JUNCTION   1399.62  1717.16     0  02:03        2.36        3.68       0.017
  YS02001602           JUNCTION      0.00   524.61     0  01:53           0        2.22       0.019
  YS02001605           JUNCTION      0.00   524.55     0  01:53           0         2.1       0.025
  YS02001607           JUNCTION      0.00   524.17     0  01:53           0         2.1       0.089
  YS02001610           JUNCTION      0.00   760.67     0  02:04           0        2.35       0.094
  YS02001613           JUNCTION      0.00   540.56     0  01:53           0        1.87       0.089
  YS02001616           JUNCTION      0.00   539.13     0  01:53           0        1.87       0.017
  YS02001619           JUNCTION   1367.79  1367.79     0  02:04        2.75        4.36      -0.003
  YS02001622           JUNCTION      0.00   962.82     0  02:02           0         4.1      -0.000
  YS02001625           JUNCTION      0.00  1358.66     0  02:05           0        4.32       0.206
  YS02001629           JUNCTION      0.00   926.22     0  01:53           0        3.33       0.014
  YS02001633           JUNCTION   1051.58  1366.05     0  01:56        1.73        4.77       0.069
  YS02001641           JUNCTION      0.00  1364.21     0  01:56           0         4.5       0.060
  YS02001644           JUNCTION    940.65  1780.08     0  01:56         1.5        5.99       0.055
  YS02001647           JUNCTION      0.00  1780.71     0  01:56           0        5.45       0.010
  YS02001649           JUNCTION      0.00  2021.28     0  01:55           0        6.82       0.002
  YS02001652           JUNCTION      0.00   954.48     0  02:02           0        1.37      -0.079
  YS02001655           JUNCTION      0.15   953.91     0  02:02     0.00443        1.37       0.031
  YS02001658           JUNCTION      0.00   954.20     0  02:02           0        1.37      -0.033
  YS02001661           JUNCTION      0.00   952.36     0  02:02           0        1.37       0.002
  YS02001664           JUNCTION    925.56   925.56     0  02:02        1.37        1.37      -0.012
  YS02001745           JUNCTION    594.72   594.72     0  02:02       0.827       0.827       0.178
  YS02001748           JUNCTION      0.04   606.24     0  02:02      0.0013       0.828      -0.302
  YS02001751           JUNCTION      0.01   605.94     0  02:02    0.000317       0.836       0.124
  YS02001754           JUNCTION      0.26   607.40     0  02:02     0.00749        0.85      -0.184
  YS02001757           JUNCTION      0.00  3298.49     0  01:59           0        10.3       0.022
  YS02001759           JUNCTION    824.80  1367.57     0  02:01        1.14        2.64      -0.009
  YS02001762           JUNCTION      0.00   732.92     0  01:58           0         1.5      -0.000
  YS02001765           JUNCTION      0.00   734.27     0  01:58           0         1.5       0.008
  YS02001767           JUNCTION      0.54   735.02     0  01:58      0.0154         1.5       0.008
  YS02001770           JUNCTION   1161.41  1161.41     0  02:02        1.74        1.78      -0.020
  YS02001774           JUNCTION      0.00   655.82     0  02:02           0       0.319       0.323
  YS02001779           JUNCTION      0.01   655.87     0  02:02    0.000144       0.275      -0.160
  YS02001783           JUNCTION      0.00  1167.65     0  02:00           0        3.97       0.005
  YS02001784           JUNCTION      1.06  1168.19     0  02:00      0.0305           4       0.012
  YS02001786           JUNCTION      0.06  1168.43     0  02:00     0.00162           4       0.018
  YS02001788           JUNCTION      0.07  1168.53     0  02:00     0.00204           4       0.007
  YS02001790           JUNCTION      0.15  1176.19     0  01:59     0.00446        4.01       0.023
  YS02001791           JUNCTION      0.00  1293.59     0  01:59           0        4.01      -0.027
  YS02001793           JUNCTION      0.00  1266.71     0  01:59           0        4.01       0.004
  YS02001882           JUNCTION      0.00    74.96     0  01:55           0      0.0125       4.614
  YS02001884           JUNCTION      0.00    82.90     0  01:55           0      0.0483       5.338
  YS02001887           JUNCTION    896.50   897.80     0  02:01        1.19        1.23       0.360
  YS02001890           JUNCTION      0.00   898.20     0  02:01           0        1.19       0.433
  YS02001895           JUNCTION      0.00   518.71     0  02:02           0        1.06       0.144
  YS02001898           JUNCTION      0.00   518.22     0  02:02           0        1.05       0.015
  YS02001901           JUNCTION      0.00   517.60     0  02:02           0        1.06       0.315
  YS02001904           JUNCTION      0.00   517.78     0  02:02           0        1.06       0.260
  YS02001907           JUNCTION      0.00  2056.53     0  02:02           0        3.67       0.489
  YS02001910           JUNCTION      0.00  1529.25     0  02:02           0        2.61       0.275
  YS02001915           JUNCTION   1017.20  1528.97     0  02:02        1.66        2.65       0.056
  YS02001918           JUNCTION      0.00   511.02     0  02:02           0        1.03       0.008
  YS02001920           JUNCTION      2.87   510.91     0  02:02      0.0827        1.01       0.099
  YS02001923           JUNCTION      0.04   506.61     0  02:02     0.00109       0.908      -0.088
  YS02001926           JUNCTION      0.05   603.43     0  01:57      0.0015       0.888      -0.046
  YS02001929           JUNCTION    492.35   492.35     0  02:03       0.872       0.875      -0.016
  YS02006553           JUNCTION      0.00   798.91     0  02:20           0        2.28       0.518
  YS02006556           JUNCTION      0.00   799.92     0  02:20           0        2.29       0.348
  YS02006558           JUNCTION   1192.97  1192.97     0  02:02        1.75        4.01       0.088
  YS02006561           JUNCTION      0.00  1177.06     0  01:56           0        3.97      -0.004
  YS02163301           JUNCTION      0.00   923.31     0  01:55           0        3.31       0.041
  YS02163601           JUNCTION      0.11  1366.01     0  01:56     0.00317         4.5       0.109
  YS02164001           JUNCTION      0.00  1365.38     0  01:56           0         4.5       0.044
  CC-1                 OUTFALL       0.00   683.00     0  00:00           0        4.13       0.000
  CC-2                 OUTFALL       0.00   683.00     0  00:00           0        2.92       0.000
  JK-1                 OUTFALL       0.00  1000.00     0  00:00           0        2.43       0.000
  JK-2                 OUTFALL       0.00  1000.00     0  00:00           0       0.147       0.000
  WSC                  OUTFALL       0.00   553.57     0  02:40           0        5.63       0.000
  CC-storage           STORAGE       0.00  3299.50     0  01:59           0        12.5      -0.230
  JK-storage           STORAGE       0.00  1230.81     0  02:00           0        4.16      -0.413
  
  
  **********************
  Node Surcharge Summary
  **********************
  
  Surcharging occurs when water rises above the top of the highest conduit.
  ---------------------------------------------------------------------
                                               Max. Height   Min. Depth
                                   Hours       Above Crown    Below Rim
  Node                 Type      Surcharged         Meters       Meters
  ---------------------------------------------------------------------
  WS02006109           JUNCTION        1.95          0.563        1.257
  WS02006110           JUNCTION        0.72          0.828        1.022
  WS02006112           JUNCTION        0.83          0.085        1.595
  WS02006228           JUNCTION        1.94          0.530        1.670
  WS02006229           JUNCTION        1.95          0.503        1.947
  WS02006230           JUNCTION        0.74          0.483        1.087
  WS02006231           JUNCTION        0.92          0.778        0.752
  WS02006232           JUNCTION        1.98          0.656        0.824
  WS02006234           JUNCTION        1.36          0.611        0.629
  WS02006235           JUNCTION        1.90          0.769        0.521
  WS02006238           JUNCTION        1.95          0.803        0.627
  WS02006239           JUNCTION        1.93          0.747        0.543
  WS02006240           JUNCTION        1.95          0.740        0.650
  WS02006242           JUNCTION        1.98          0.781        0.039
  WS02006243           JUNCTION        1.94          0.665        0.105
  WS02006245           JUNCTION        1.94          0.588        0.262
  WS02006247           JUNCTION        1.94          0.542        0.218
  WS02006248           JUNCTION        1.93          0.380        0.000
  WS02006249           JUNCTION        1.93          0.390        0.000
  WS02006251           JUNCTION        1.02          0.547        0.633
  WS02006252           JUNCTION        2.17          1.100        0.000
  WS02006256           JUNCTION        6.86          2.050        0.000
  YS02001580           JUNCTION        0.63          0.450        0.000
  YS02001583           JUNCTION        0.63          0.500        0.000
  YS02001586           JUNCTION        0.76          0.510        0.000
  YS02001590           JUNCTION        0.83          0.750        0.000
  YS02001593           JUNCTION        0.83          0.695        0.145
  YS02001596           JUNCTION        0.95          0.955        0.115
  YS02001600           JUNCTION        1.09          1.190        0.000
  YS02001601           JUNCTION        1.42          1.440        0.000
  YS02001602           JUNCTION        1.33          1.270        0.000
  YS02001605           JUNCTION        1.28          1.180        0.000
  YS02001607           JUNCTION        0.83          0.680        0.000
  YS02001610           JUNCTION        0.85          0.680        0.000
  YS02001613           JUNCTION        0.82          0.700        0.000
  YS02001616           JUNCTION        0.78          0.610        0.000
  YS02001619           JUNCTION        0.77          0.610        0.000
  YS02001622           JUNCTION        0.77          0.609        0.011
  YS02001625           JUNCTION        0.95          0.780        0.000
  YS02001629           JUNCTION        0.72          0.470        0.000
  YS02001633           JUNCTION        0.97          0.996        0.064
  YS02001641           JUNCTION        0.93          0.951        0.149
  YS02001644           JUNCTION        0.90          0.920        0.000
  YS02001647           JUNCTION        0.70          0.797        0.103
  YS02001649           JUNCTION        0.83          1.026        0.024
  YS02001652           JUNCTION        0.63          0.884        0.246
  YS02001655           JUNCTION        0.47          0.956        0.244
  YS02001658           JUNCTION        0.25          0.961        0.339
  YS02001661           JUNCTION        0.06          0.480        0.910
  YS02001748           JUNCTION        0.20          1.068        0.122
  YS02001751           JUNCTION        0.34          0.983        0.217
  YS02001754           JUNCTION        0.55          0.969        0.181
  YS02001757           JUNCTION        0.90          1.144        0.066
  YS02001759           JUNCTION        0.81          1.071        0.139
  YS02001762           JUNCTION        0.77          1.097        0.053
  YS02001765           JUNCTION        0.72          1.068        0.032
  YS02001767           JUNCTION        0.69          1.012        0.018
  YS02001770           JUNCTION        0.66          0.920        0.000
  YS02001774           JUNCTION        0.75          1.050        0.000
  YS02001779           JUNCTION        0.54          0.680        0.000
  YS02001783           JUNCTION        0.55          0.522        1.078
  YS02001784           JUNCTION        0.53          0.391        1.099
  YS02001786           JUNCTION        0.42          0.116        1.314
  YS02001882           JUNCTION        0.50          0.830        0.000
  YS02001884           JUNCTION        0.51          0.843        0.027
  YS02001887           JUNCTION        0.54          0.855        0.095
  YS02001890           JUNCTION        0.55          0.760        0.000
  YS02001895           JUNCTION        0.49          0.750        0.000
  YS02001898           JUNCTION        0.48          0.654        0.086
  YS02001901           JUNCTION        0.53          0.698        0.172
  YS02001904           JUNCTION        0.52          0.638        0.212
  YS02001907           JUNCTION        0.75          0.950        0.000
  YS02001910           JUNCTION        0.58          0.972        0.128
  YS02001915           JUNCTION        0.49          1.000        0.000
  YS02001918           JUNCTION        0.41          0.810        0.000
  YS02001920           JUNCTION        0.43          1.140        0.000
  YS02001923           JUNCTION        0.13          0.820        0.000
  YS02001926           JUNCTION        0.15          0.900        0.000
  YS02001929           JUNCTION        0.01          0.780        0.000
  YS02006553           JUNCTION        0.77          0.985        0.205
  YS02006556           JUNCTION        0.67          0.937        0.413
  YS02006558           JUNCTION        0.65          0.923        0.477
  YS02006561           JUNCTION        0.38          0.232        0.918
  YS02163301           JUNCTION        0.95          0.915        0.115
  YS02163601           JUNCTION        1.01          1.032        0.048
  YS02164001           JUNCTION        0.93          0.952        0.148
  
  
  *********************
  Node Flooding Summary
  *********************
  
  Flooding refers to all water that overflows a node, whether it ponds or not.
  --------------------------------------------------------------------------
                                                             Total   Maximum
                                 Maximum   Time of Max       Flood    Ponded
                        Hours       Rate    Occurrence      Volume     Depth
  Node                 Flooded       LPS   days hr:min    10^6 ltr    Meters
  --------------------------------------------------------------------------
  WS02006248              0.02     21.22      0  02:20       0.001     0.000
  WS02006249              0.97    114.66      0  02:00       0.226     0.000
  WS02006252              0.01    245.63      0  00:00       0.000     0.000
  WS02006256              1.44    293.19      0  00:00       0.479     0.000
  YS02001580              0.01    122.69      0  01:54       0.001     0.000
  YS02001583              0.01    120.46      0  01:54       0.000     0.000
  YS02001586              0.51    450.45      0  02:04       0.396     0.000
  YS02001590              0.01     31.13      0  01:51       0.000     0.000
  YS02001600              0.01      0.84      0  01:54       0.000     0.000
  YS02001601              0.69   1319.24      0  02:03       1.462     0.000
  YS02001602              0.60     62.01      0  02:21       0.121     0.000
  YS02001605              0.01      2.90      0  01:53       0.000     0.000
  YS02001607              0.01     11.71      0  01:53       0.000     0.000
  YS02001610              0.52    760.05      0  02:04       0.737     0.000
  YS02001613              0.01     40.53      0  01:53       0.000     0.000
  YS02001616              0.01     32.35      0  01:53       0.000     0.000
  YS02001619              0.01    102.91      0  01:53       0.000     0.000
  YS02001625              0.49   1358.60      0  02:05       1.255     0.000
  YS02001629              0.13    234.23      0  02:00       0.061     0.000
  YS02001644              0.22   1201.97      0  02:02       0.531     0.000
  YS02001770              0.01     73.18      0  01:57       0.000     0.000
  YS02001774              0.01      5.91      0  01:57       0.000     0.000
  YS02001779              0.20    655.85      0  02:02       0.258     0.000
  YS02001882              0.01     40.90      0  01:55       0.000     0.000
  YS02001890              0.18    383.23      0  02:01       0.126     0.000
  YS02001895              0.01     55.21      0  01:55       0.000     0.000
  YS02001907              0.36   2056.36      0  02:02       1.382     0.000
  YS02001915              0.01     98.35      0  01:55       0.000     0.000
  YS02001918              0.01    211.66      0  01:57       0.003     0.000
  YS02001920              0.01     54.56      0  01:57       0.000     0.000
  YS02001923              0.01    159.21      0  01:57       0.001     0.000
  YS02001926              0.01    169.58      0  01:57       0.001     0.000
  YS02001929              0.01     78.10      0  01:57       0.000     0.000
  
  
  **********************
  Storage Volume Summary
  **********************
  
  ------------------------------------------------------------------------------------------------
                         Average    Avg   Evap  Exfil     Maximum    Max    Time of Max    Maximum
                          Volume   Pcnt   Pcnt   Pcnt      Volume   Pcnt     Occurrence    Outflow
  Storage Unit           1000 m³   Full   Loss   Loss     1000 m³   Full    days hr:min        LPS
  ------------------------------------------------------------------------------------------------
  CC-storage               2.541   39.6    0.0    0.0       4.830   75.3       0  02:30    1783.53
  JK-storage               0.140   48.2    0.0    0.0       0.213   73.0       0  02:05    2300.00
  
  
  ***********************
  Outfall Loading Summary
  ***********************
  
  -----------------------------------------------------------
                         Flow       Avg       Max       Total
                         Freq      Flow      Flow      Volume
  Outfall Node           Pcnt       LPS       LPS    10^6 ltr
  -----------------------------------------------------------
  CC-1                  22.54    683.00    683.00       4.134
  CC-2                  17.12    683.00    683.00       2.916
  JK-1                  10.36   1000.00   1000.00       2.434
  JK-2                   0.44   1000.00   1000.00       0.147
  WSC                   99.96    250.07    553.57       5.628
  -----------------------------------------------------------
  System                30.08   3616.07   3915.80      15.259
  
  
  ********************
  Link Flow Summary
  ********************
  
  -----------------------------------------------------------------------------
                                 Maximum  Time of Max   Maximum    Max/    Max/
                                  |Flow|   Occurrence   |Veloc|    Full    Full
  Link                 Type          LPS  days hr:min     m/sec    Flow   Depth
  -----------------------------------------------------------------------------
  1                    CONDUIT    553.57     0  02:40      2.82    0.19    0.30
  WS02003060WS02003069 CONDUIT    552.10     0  02:38      1.64    0.22    0.34
  WS02003066WSF200     CONDUIT    535.57     0  02:38      2.85    0.09    0.22
  WS02003067WS02003066 CONDUIT    535.54     0  02:37      1.21    0.17    0.42
  WS02003069WS02003072 CONDUIT    552.11     0  02:39      1.37    0.27    0.39
  WS02003072WS02003073 CONDUIT    551.93     0  02:39      1.43    1.19    0.37
  WS02004401WS02004402 CONDUIT    537.42     0  02:17      0.98    0.65    0.86
  WS02004402WS02004403 CONDUIT    537.00     0  02:17      0.97    0.77    0.88
  WS02004403WS02004404 CONDUIT    536.53     0  02:35      0.92    0.39    0.93
  WS02004404WS02004405 CONDUIT    536.43     0  02:36      1.08    5.26    0.96
  WS02004405WS02004406 CONDUIT    536.72     0  02:36      0.99    1.06    0.96
  WS02004406WS02004407 CONDUIT    536.42     0  02:36      1.04    0.24    0.63
  WS02004407WS02004409 CONDUIT    536.35     0  02:36      1.54    0.19    0.48
  WS02004409WS02004410 CONDUIT    536.23     0  02:36      1.01    0.69    0.67
  WS02004410WS02004411 CONDUIT    535.90     0  02:37      0.95    0.73    0.69
  WS02004411WS02004412 CONDUIT    535.81     0  02:37      0.92    0.76    0.69
  WS02004412WS02004413 CONDUIT    535.61     0  02:37      0.82    0.36    0.78
  WS02004413WS02003067 CONDUIT    535.48     0  02:37      1.11    0.23    0.59
  WS02006109WS02006110 CONDUIT    559.57     0  02:45      1.11    1.08    1.00
  WS02006110WS02006113 CONDUIT    570.84     0  02:26      1.38    0.52    0.79
  WS02006111WS02006112 CONDUIT    544.27     0  02:47      1.81    0.26    0.67
  WS02006112WS02006115 CONDUIT    551.60     0  02:47      0.84    0.33    0.87
  WS02006113WS02006111 CONDUIT    561.63     0  03:35      2.47    0.67    0.46
  WS02006115WS02006116 CONDUIT    539.49     0  02:25      1.02    0.69    0.76
  WS02006116WS02004401 CONDUIT    538.63     0  02:17      0.98    0.74    0.84
  WS02006228WS02006109 CONDUIT    559.12     0  02:45      1.11    2.44    1.00
  WS02006229WS02006228 CONDUIT    558.31     0  02:45      1.14    1.85    1.00
  WS02006230WS02006229 CONDUIT    557.87     0  02:45      1.45   12.41    1.00
  WS02006231WS02006230 CONDUIT    580.45     0  02:26      1.58    8.80    1.00
  WS02006232WS02006231 CONDUIT    572.55     0  02:26      1.49    1.20    1.00
  WS02006234WS02006232 CONDUIT    571.63     0  02:26      1.49    1.16    1.00
  WS02006235WS02006234 CONDUIT    567.26     0  02:26      1.47    5.98    1.00
  WS02006238WS02006235 CONDUIT    426.63     0  02:40      1.45    0.95    1.00
  WS02006239WS02006238 CONDUIT    426.72     0  02:40      1.11    1.37    1.00
  WS02006240WS02006239 CONDUIT    427.54     0  03:30      1.24    1.35    1.00
  WS02006242WS02006240 CONDUIT    426.28     0  03:30      1.13    1.69    1.00
  WS02006243WS02006242 CONDUIT    425.87     0  03:30      1.40    0.91    1.00
  WS02006245WS02006243 CONDUIT    424.95     0  03:30      1.45    1.26    1.00
  WS02006247WS02006245 CONDUIT    424.21     0  03:30      1.43    3.36    1.00
  WS02006248WS02006247 CONDUIT    424.58     0  03:30      1.44    0.92    1.00
  WS02006249WS02006248 CONDUIT    425.91     0  03:30      1.36    2.33    1.00
  WS02006251WS02006249 CONDUIT    459.02     0  00:00      1.99    1.32    1.00
  WS02006252WS02006251 CONDUIT    410.97     0  02:00     24.61    1.51    1.00
  WS02006256WS02006235 CONDUIT    288.91     0  00:00      4.23    3.06    1.00
  WSF200WS02003060     CONDUIT    535.77     0  02:38      2.06    0.12    0.28
  YS02001580YS02001583 CONDUIT    134.23     0  01:54      0.71    0.52    1.00
  YS02001583YS02001586 CONDUIT    165.26     0  01:53      0.71    0.25    1.00
  YS02001586YS02001590 CONDUIT    318.11     0  02:21      1.25    0.56    1.00
  YS02001590YS02001593 CONDUIT    318.01     0  02:21      1.12    2.00    1.00
  YS02001593YS02001596 CONDUIT    318.08     0  02:21      1.74    0.50    1.00
  YS02001596YS02001600 CONDUIT    318.04     0  02:21      1.24    0.62    1.00
  YS02001600YS02001601 CONDUIT    317.91     0  02:12      1.12    0.55    1.00
  YS02001601YS02001602 CONDUIT    524.61     0  01:53      1.86    1.89    1.00
  YS02001602YS02001605 CONDUIT    524.55     0  01:53      1.86   11.10    1.00
  YS02001605YS02001607 CONDUIT    524.17     0  01:53      1.85    2.87    1.00
  YS02001607YS02001610 CONDUIT    534.98     0  01:53      0.68    0.51    1.00
  YS02001610YS02001613 CONDUIT    540.56     0  01:53      0.69    0.62    1.00
  YS02001613YS02001616 CONDUIT    539.13     0  01:53      0.69    0.46    1.00
  YS02001616YS02001619 CONDUIT    505.29     0  01:53      0.67    0.88    1.00
  YS02001619YS02001622 CONDUIT    962.82     0  02:02      1.23    1.42    1.00
  YS02001622YS02001625 CONDUIT    963.22     0  02:02      1.23    0.51    1.00
  YS02001625YS02001629 CONDUIT    926.22     0  01:53      1.19    0.44    1.00
  YS02001629YS02163301 CONDUIT    923.31     0  01:55      1.18    1.14    1.00
  YS02001633YS02163601 CONDUIT   1365.90     0  01:56      1.74    1.43    1.00
  YS02001641YS02001644 CONDUIT   1363.57     0  01:56      1.74    4.41    1.00
  YS02001644YS02001647 CONDUIT   1780.71     0  01:56      2.28    1.05    1.00
  YS02001647YS02001649 CONDUIT   1781.35     0  01:56      2.33    0.94    1.00
  YS02001649YS02001757 CONDUIT   1973.42     0  01:56      2.53    1.20    1.00
  YS02001652YS02001649 CONDUIT    954.16     0  02:02      1.21    0.47    1.00
  YS02001655YS02001652 CONDUIT    954.48     0  02:02      1.36    0.46    1.00
  YS02001658YS02001655 CONDUIT    953.76     0  02:02      1.91    0.40    1.00
  YS02001661YS02001658 CONDUIT    954.20     0  02:02      2.32    0.37    1.00
  YS02001664YS02001661 CONDUIT    952.36     0  02:02      2.32    0.30    0.84
  YS02001745YS02001748 CONDUIT    606.19     0  02:02      2.19    0.23    0.95
  YS02001748YS02001751 CONDUIT    605.93     0  02:02      1.72    0.31    1.00
  YS02001751YS02001754 CONDUIT    607.14     0  02:02      1.46    0.29    1.00
  YS02001754YS02001757 CONDUIT    607.34     0  02:02      0.77    0.24    1.00
  YS02001757CaochengTiaoxuchi CONDUIT   3299.50     0  01:59      4.20    1.43    1.00
  YS02001759YS02001757 CONDUIT   1368.54     0  02:01      1.74    0.97    1.00
  YS02001762YS02001759 CONDUIT    732.53     0  01:58      0.93    0.84    1.00
  YS02001765YS02001762 CONDUIT    732.92     0  01:58      0.93    0.69    1.00
  YS02001767YS02001765 CONDUIT    734.27     0  01:58      0.93    0.92    1.00
  YS02001770YS02001767 CONDUIT    734.48     0  01:58      0.94    2.91    1.00
  YS02001774YS02001770 CONDUIT    655.82     0  02:02      0.84    0.42    1.00
  YS02001779YS02001774 CONDUIT    655.87     0  02:02      0.84    0.33    1.00
  YS02001783YS02001784 CONDUIT   1167.13     0  02:00      2.32    1.61    1.00
  YS02001784YS02001785 CONDUIT   1168.37     0  02:00      2.32    2.72    1.00
  YS02001786YS02001788 CONDUIT   1168.46     0  02:00      2.49    2.25    0.89
  YS02001788YS02001790 CONDUIT   1176.04     0  01:59      2.72    0.87    0.84
  YS02001790YS02001791 CONDUIT   1293.59     0  01:59      3.44    1.41    0.71
  YS02001791YS02001793 CONDUIT   1266.71     0  01:59      6.45    0.54    0.44
  YS02001793JiankangQianchi CONDUIT   1230.81     0  02:00      2.40    0.10    0.65
  YS02001882YS02001884 CONDUIT     74.96     0  01:55      0.12    0.09    1.00
  YS02001884YS02001887 CONDUIT     82.90     0  01:55      0.11    0.11    1.00
  YS02001887YS02001890 CONDUIT    898.20     0  02:01      1.14    1.54    1.00
  YS02001890YS02001895 CONDUIT    518.71     0  02:02      0.66    0.24    1.00
  YS02001895YS02001898 CONDUIT    518.22     0  02:02      0.66    0.90    1.00
  YS02001898YS02001901 CONDUIT    517.60     0  02:02      0.66    0.33    1.00
  YS02001901YS02001904 CONDUIT    517.78     0  02:02      0.66    0.80    1.00
  YS02001904YS02001907 CONDUIT    518.59     0  02:02      0.66    0.18    1.00
  YS02001907YS02006553 CONDUIT    798.91     0  02:20      0.89    0.94    1.00
  YS02001910YS02001907 CONDUIT   1529.59     0  02:02      1.95    0.86    1.00
  YS02001915YS02001910 CONDUIT   1529.25     0  02:02      1.95    0.76    1.00
  YS02001918YS02001915 CONDUIT    512.21     0  02:02      0.65    0.28    1.00
  YS02001920YS02001918 CONDUIT    511.02     0  02:02      0.65    0.49    1.00
  YS02001923YS02001920 CONDUIT    508.04     0  02:02      0.70    0.23    1.00
  YS02001926YS02001923 CONDUIT    506.57     0  02:02      0.96    0.72    1.00
  YS02001929YS02001926 CONDUIT    505.72     0  02:02      1.13    0.24    1.00
  YS02006553YS02006556 CONDUIT    799.92     0  02:20      1.02    0.68    1.00
  YS02006556YS02006558 CONDUIT    800.09     0  02:20      1.02    0.63    1.00
  YS02006558YS02006561 CONDUIT   1177.06     0  01:56      4.16    2.60    1.00
  YS02006561YS02001783 CONDUIT   1167.65     0  02:00      2.32    0.60    1.00
  YS02163301YS02001633 CONDUIT    923.26     0  01:55      1.18    0.87    1.00
  YS02163601YS02164001 CONDUIT   1365.38     0  01:56      1.74    1.21    1.00
  YS02164001YS02001641 CONDUIT   1364.21     0  01:56      1.74    1.86    1.00
  CC-R1                PUMP       683.00     0  00:00              1.00
  CC-R2                PUMP       683.00     0  00:00              1.00
  CC-S1                PUMP       200.00     0  00:00              1.00
  CC-S2                PUMP       200.00     0  00:00              1.00
  JK-R1                PUMP      1000.00     0  00:00              1.00
  JK-R2                PUMP      1000.00     0  00:00              1.00
  JK-S                 PUMP       300.00     0  00:00              1.00
  
  
  ***************************
  Flow Classification Summary
  ***************************
  
  -------------------------------------------------------------------------------------
                      Adjusted    ---------- Fraction of Time in Flow Class ---------- 
                       /Actual         Up    Down  Sub   Sup   Up    Down  Norm  Inlet 
  Conduit               Length    Dry  Dry   Dry   Crit  Crit  Crit  Crit  Ltd   Ctrl  
  -------------------------------------------------------------------------------------
  1                       1.00   0.00  0.00  0.00  0.00  1.00  0.00  0.00  0.41  0.00
  WS02003060WS02003069    1.00   0.00  0.00  0.00  0.97  0.03  0.00  0.00  0.68  0.00
  WS02003066WSF200        1.00   0.13  0.00  0.00  0.00  0.87  0.00  0.00  0.75  0.00
  WS02003067WS02003066    1.00   0.10  0.02  0.00  0.88  0.00  0.00  0.00  0.00  0.00
  WS02003069WS02003072    1.00   0.00  0.00  0.00  0.99  0.01  0.00  0.00  0.73  0.00
  WS02003072WS02003073    1.00   0.00  0.00  0.00  0.00  0.00  0.00  1.00  0.00  0.00
  WS02004401WS02004402    1.00   0.02  0.00  0.00  0.98  0.00  0.00  0.00  0.00  0.00
  WS02004402WS02004403    1.00   0.02  0.00  0.00  0.97  0.00  0.00  0.00  0.00  0.00
  WS02004403WS02004404    1.00   0.00  0.03  0.00  0.97  0.00  0.00  0.00  0.00  0.00
  WS02004404WS02004405    1.00   0.00  0.00  0.00  1.00  0.00  0.00  0.00  0.01  0.00
  WS02004405WS02004406    1.00   0.00  0.00  0.00  1.00  0.00  0.00  0.00  0.00  0.00
  WS02004406WS02004407    1.00   0.00  0.05  0.00  0.95  0.00  0.00  0.00  0.00  0.00
  WS02004407WS02004409    1.00   0.05  0.00  0.00  0.94  0.01  0.00  0.00  0.94  0.00
  WS02004409WS02004410    1.00   0.05  0.00  0.00  0.95  0.00  0.00  0.00  0.03  0.00
  WS02004410WS02004411    1.00   0.05  0.00  0.00  0.95  0.00  0.00  0.00  0.01  0.00
  WS02004411WS02004412    1.00   0.05  0.00  0.00  0.95  0.00  0.00  0.00  0.00  0.00
  WS02004412WS02004413    1.00   0.05  0.00  0.00  0.94  0.00  0.00  0.00  0.01  0.00
  WS02004413WS02003067    1.00   0.06  0.04  0.00  0.00  0.00  0.90  0.00  0.00  0.00
  WS02006109WS02006110    1.00   0.00  0.01  0.00  0.98  0.00  0.01  0.00  0.00  0.00
  WS02006110WS02006113    1.00   0.01  0.01  0.00  0.98  0.00  0.00  0.00  0.00  0.00
  WS02006111WS02006112    1.00   0.02  0.00  0.00  0.98  0.00  0.00  0.00  0.98  0.00
  WS02006112WS02006115    1.00   0.02  0.00  0.00  0.97  0.00  0.00  0.00  0.00  0.00
  WS02006113WS02006111    1.00   0.02  0.00  0.00  0.00  0.98  0.00  0.00  0.14  0.00
  WS02006115WS02006116    1.00   0.02  0.00  0.00  0.97  0.00  0.00  0.01  0.00  0.00
  WS02006116WS02004401    1.00   0.02  0.00  0.00  0.98  0.00  0.00  0.00  0.00  0.00
  WS02006228WS02006109    1.00   0.00  0.00  0.00  1.00  0.00  0.00  0.00  0.00  0.00
  WS02006229WS02006228    1.00   0.00  0.00  0.00  0.99  0.00  0.00  0.01  0.00  0.00
  WS02006230WS02006229    1.00   0.00  0.00  0.00  0.99  0.00  0.00  0.01  0.01  0.00
  WS02006231WS02006230    1.00   0.00  0.00  0.00  0.27  0.00  0.73  0.00  0.00  0.00
  WS02006232WS02006231    1.00   0.00  0.00  0.00  0.99  0.00  0.01  0.00  0.00  0.00
  WS02006234WS02006232    1.00   0.00  0.00  0.00  1.00  0.00  0.00  0.00  0.07  0.00
  WS02006235WS02006234    1.00   0.00  0.00  0.00  0.91  0.00  0.09  0.00  0.00  0.00
  WS02006238WS02006235    1.00   0.00  0.00  0.00  1.00  0.00  0.00  0.00  0.00  0.00
  WS02006239WS02006238    1.00   0.00  0.00  0.00  1.00  0.00  0.00  0.00  0.14  0.00
  WS02006240WS02006239    1.00   0.00  0.00  0.00  0.74  0.00  0.00  0.26  0.06  0.00
  WS02006242WS02006240    1.00   0.00  0.00  0.00  0.99  0.00  0.01  0.00  0.00  0.00
  WS02006243WS02006242    1.00   0.00  0.00  0.00  0.99  0.00  0.00  0.01  0.50  0.00
  WS02006245WS02006243    1.00   0.00  0.00  0.00  0.80  0.00  0.00  0.20  0.01  0.00
  WS02006247WS02006245    1.00   0.00  0.00  0.00  0.97  0.00  0.00  0.03  0.00  0.00
  WS02006248WS02006247    1.00   0.00  0.00  0.00  0.98  0.00  0.00  0.02  0.37  0.00
  WS02006249WS02006248    1.00   0.00  0.00  0.00  0.50  0.00  0.50  0.00  0.00  0.00
  WS02006251WS02006249    1.00   0.00  0.00  0.00  0.99  0.01  0.00  0.00  0.51  0.00
  WS02006252WS02006251    1.00   0.06  0.48  0.00  0.13  0.00  0.33  0.00  0.00  0.00
  WS02006256WS02006235    1.00   0.00  0.00  0.00  0.98  0.02  0.00  0.00  0.00  0.00
  WSF200WS02003060        1.00   0.00  0.13  0.00  0.21  0.66  0.00  0.00  0.47  0.00
  YS02001580YS02001583    1.00   0.23  0.57  0.00  0.20  0.00  0.00  0.00  0.66  0.00
  YS02001583YS02001586    1.00   0.42  0.33  0.00  0.25  0.00  0.00  0.00  0.66  0.00
  YS02001586YS02001590    1.00   0.13  0.00  0.00  0.43  0.04  0.00  0.41  0.36  0.00
  YS02001590YS02001593    1.00   0.13  0.01  0.00  0.12  0.00  0.75  0.00  0.00  0.00
  YS02001593YS02001596    1.00   0.14  0.00  0.00  0.14  0.01  0.00  0.72  0.02  0.00
  YS02001596YS02001600    1.00   0.14  0.00  0.00  0.20  0.01  0.00  0.66  0.04  0.00
  YS02001600YS02001601    1.00   0.13  0.01  0.00  0.86  0.00  0.00  0.00  0.61  0.00
  YS02001601YS02001602    1.00   0.13  0.01  0.00  0.86  0.00  0.00  0.00  0.00  0.00
  YS02001602YS02001605    1.00   0.14  0.00  0.00  0.86  0.00  0.00  0.00  0.00  0.00
  YS02001605YS02001607    1.00   0.14  0.00  0.00  0.86  0.00  0.00  0.00  0.00  0.00
  YS02001607YS02001610    1.00   0.13  0.01  0.00  0.86  0.00  0.00  0.00  0.02  0.00
  YS02001610YS02001613    1.00   0.13  0.00  0.00  0.87  0.00  0.00  0.00  0.01  0.00
  YS02001613YS02001616    1.00   0.13  0.00  0.00  0.87  0.00  0.00  0.00  0.00  0.00
  YS02001616YS02001619    1.00   0.13  0.00  0.00  0.87  0.00  0.00  0.00  0.00  0.00
  YS02001619YS02001622    1.00   0.13  0.00  0.00  0.87  0.00  0.00  0.00  0.29  0.00
  YS02001622YS02001625    1.00   0.13  0.00  0.00  0.87  0.00  0.00  0.00  0.05  0.00
  YS02001625YS02001629    1.00   0.13  0.05  0.00  0.16  0.00  0.66  0.00  0.00  0.00
  YS02001629YS02163301    1.00   0.15  0.01  0.00  0.83  0.00  0.00  0.00  0.00  0.00
  YS02001633YS02163601    1.00   0.00  0.01  0.00  0.99  0.00  0.00  0.00  0.15  0.00
  YS02001641YS02001644    1.00   0.00  0.01  0.00  0.99  0.00  0.00  0.00  0.00  0.00
  YS02001644YS02001647    1.00   0.00  0.17  0.00  0.83  0.00  0.00  0.00  0.00  0.00
  YS02001647YS02001649    1.00   0.00  0.17  0.00  0.56  0.26  0.00  0.00  0.56  0.00
  YS02001649YS02001757    1.00   0.00  0.00  0.00  0.88  0.12  0.00  0.00  0.43  0.00
  YS02001652YS02001649    1.00   0.00  0.00  0.00  0.96  0.04  0.00  0.00  0.73  0.00
  YS02001655YS02001652    1.00   0.00  0.00  0.00  0.19  0.01  0.00  0.80  0.05  0.00
  YS02001658YS02001655    1.00   0.00  0.14  0.00  0.67  0.19  0.00  0.00  0.67  0.00
  YS02001661YS02001658    1.00   0.14  0.00  0.00  0.51  0.35  0.00  0.00  0.68  0.00
  YS02001664YS02001661    1.00   0.13  0.00  0.00  0.79  0.09  0.00  0.00  0.85  0.00
  YS02001745YS02001748    1.00   0.00  0.00  0.00  0.11  0.01  0.00  0.89  0.04  0.00
  YS02001748YS02001751    1.00   0.00  0.00  0.00  0.84  0.16  0.00  0.00  0.76  0.00
  YS02001751YS02001754    1.00   0.00  0.00  0.00  0.18  0.00  0.00  0.82  0.04  0.00
  YS02001754YS02001757    1.00   0.00  0.00  0.00  1.00  0.00  0.00  0.00  0.81  0.00
  YS02001757CaochengTiaoxuchi    1.00   0.00  0.00  0.00  1.00  0.00  0.00  0.00  0.63  0.00
  YS02001759YS02001757    1.00   0.00  0.00  0.00  1.00  0.00  0.00  0.00  0.51  0.00
  YS02001762YS02001759    1.00   0.00  0.00  0.00  1.00  0.00  0.00  0.00  0.05  0.00
  YS02001765YS02001762    1.00   0.00  0.00  0.00  1.00  0.00  0.00  0.00  0.66  0.00
  YS02001767YS02001765    1.00   0.00  0.00  0.00  1.00  0.00  0.00  0.00  0.01  0.00
  YS02001770YS02001767    1.00   0.00  0.00  0.00  1.00  0.00  0.00  0.00  0.00  0.00
  YS02001774YS02001770    1.00   0.00  0.13  0.00  0.70  0.00  0.17  0.00  0.03  0.00
  YS02001779YS02001774    1.00   0.00  0.00  0.00  1.00  0.00  0.00  0.00  0.77  0.00
  YS02001783YS02001784    1.00   0.00  0.18  0.00  0.82  0.00  0.00  0.00  0.56  0.00
  YS02001784YS02001785    1.00   0.00  0.00  0.00  1.00  0.00  0.00  0.00  0.17  0.00
  YS02001786YS02001788    1.00   0.00  0.00  0.00  0.80  0.20  0.00  0.00  0.00  0.00
  YS02001788YS02001790    1.00   0.00  0.00  0.00  0.21  0.79  0.00  0.00  0.81  0.00
  YS02001790YS02001791    1.00   0.00  0.00  0.00  0.01  0.99  0.00  0.00  0.16  0.00
  YS02001791YS02001793    1.00   0.00  0.00  0.00  0.00  1.00  0.00  0.00  0.01  0.00
  YS02001793JiankangQianchi    1.00   0.00  0.00  0.00  0.99  0.00  0.00  0.00  0.94  0.00
  YS02001882YS02001884    1.00   0.15  0.01  0.00  0.84  0.00  0.00  0.00  0.00  0.00
  YS02001884YS02001887    1.00   0.06  0.05  0.00  0.89  0.00  0.00  0.00  0.00  0.00
  YS02001887YS02001890    1.00   0.00  0.00  0.00  0.97  0.00  0.03  0.00  0.00  0.00
  YS02001890YS02001895    1.00   0.00  0.16  0.00  0.83  0.00  0.00  0.00  0.00  0.00
  YS02001895YS02001898    1.00   0.17  0.00  0.00  0.81  0.00  0.02  0.00  0.00  0.00
  YS02001898YS02001901    1.00   0.17  0.00  0.00  0.83  0.00  0.00  0.00  0.01  0.00
  YS02001901YS02001904    1.00   0.17  0.00  0.00  0.83  0.00  0.00  0.00  0.00  0.00
  YS02001904YS02001907    1.00   0.00  0.16  0.00  0.83  0.00  0.00  0.00  0.00  0.00
  YS02001907YS02006553    1.00   0.00  0.02  0.00  0.98  0.00  0.00  0.00  0.00  0.00
  YS02001910YS02001907    1.00   0.00  0.00  0.00  0.97  0.00  0.00  0.03  0.12  0.00
  YS02001915YS02001910    1.00   0.00  0.00  0.00  0.97  0.03  0.00  0.00  0.16  0.00
  YS02001918YS02001915    1.00   0.00  0.01  0.00  0.98  0.02  0.00  0.00  0.75  0.00
  YS02001920YS02001918    1.00   0.00  0.01  0.00  0.99  0.00  0.00  0.00  0.00  0.00
  YS02001923YS02001920    1.00   0.00  0.00  0.00  1.00  0.00  0.00  0.00  0.92  0.00
  YS02001926YS02001923    1.00   0.00  0.07  0.00  0.06  0.00  0.86  0.00  0.00  0.00
  YS02001929YS02001926    1.00   0.00  0.13  0.00  0.87  0.00  0.00  0.00  0.82  0.00
  YS02006553YS02006556    1.00   0.01  0.00  0.00  0.99  0.00  0.00  0.00  0.03  0.00
  YS02006556YS02006558    1.00   0.00  0.00  0.00  1.00  0.00  0.00  0.00  0.00  0.00
  YS02006558YS02006561    1.00   0.18  0.00  0.00  0.06  0.76  0.00  0.00  0.19  0.00
  YS02006561YS02001783    1.00   0.18  0.00  0.00  0.09  0.73  0.00  0.00  0.69  0.00
  YS02163301YS02001633    1.00   0.00  0.15  0.00  0.85  0.00  0.00  0.00  0.00  0.00
  YS02163601YS02164001    1.00   0.00  0.08  0.00  0.92  0.00  0.00  0.00  0.00  0.00
  YS02164001YS02001641    1.00   0.01  0.07  0.00  0.92  0.00  0.00  0.00  0.06  0.00
  
  
  *************************
  Conduit Surcharge Summary
  *************************
  
  ----------------------------------------------------------------------------
                                                           Hours        Hours 
                         --------- Hours Full --------   Above Full   Capacity
  Conduit                Both Ends  Upstream  Dnstream   Normal Flow   Limited
  ----------------------------------------------------------------------------
  WS02003072WS02003073        0.01      0.01      0.01      1.36         0.01
  WS02004404WS02004405        0.01      0.01      0.01      3.57         0.01
  WS02004405WS02004406        0.01      0.01      0.01      0.72         0.01
  WS02006109WS02006110        0.72      0.72      1.98      0.87         0.01
  WS02006110WS02006113        0.01      0.01      1.97      0.01         0.01
  WS02006111WS02006112        0.01      0.01      2.21      0.01         0.01
  WS02006112WS02006115        0.01      0.01      0.83      0.01         0.01
  WS02006228WS02006109        1.95      1.98      1.95      2.61         1.95
  WS02006229WS02006228        1.94      1.95      1.94      2.23         1.92
  WS02006230WS02006229        2.06      2.19      2.06      4.46         2.06
  WS02006231WS02006230        0.74      0.74      1.00      3.96         0.01
  WS02006232WS02006231        0.92      0.92      1.98      1.01         0.01
  WS02006234WS02006232        1.88      1.88      1.98      0.98         0.98
  WS02006235WS02006234        1.34      1.36      1.89      3.73         0.03
  WS02006238WS02006235        1.92      1.92      1.97      0.01         0.01
  WS02006239WS02006238        1.95      1.97      1.95      2.06         1.73
  WS02006240WS02006239        1.93      1.96      1.93      2.05         1.63
  WS02006242WS02006240        1.95      1.95      2.02      2.17         0.01
  WS02006243WS02006242        1.95      1.95      1.98      0.01         0.07
  WS02006245WS02006243        1.94      1.94      1.94      1.30         1.20
  WS02006247WS02006245        1.94      1.94      1.94      3.46         1.92
  WS02006248WS02006247        1.93      1.93      1.94      0.01         0.07
  WS02006249WS02006248        1.93      1.93      1.93      3.40         0.01
  WS02006251WS02006249        1.93      1.93      1.93      2.10         1.82
  WS02006252WS02006251        2.15      2.15      2.16      2.16         0.01
  WS02006256WS02006235        3.73      3.79      6.77      1.46         0.01
  YS02001580YS02001583        0.63      0.63      0.68      0.01         0.01
  YS02001583YS02001586        0.63      0.63      0.76      0.01         0.01
  YS02001586YS02001590        0.77      0.77      0.83      0.01         0.01
  YS02001590YS02001593        0.83      0.83      0.85      0.88         0.01
  YS02001593YS02001596        0.84      0.84      0.95      0.01         0.01
  YS02001596YS02001600        0.99      0.99      1.09      0.01         0.01
  YS02001600YS02001601        1.15      1.15      1.42      0.01         0.01
  YS02001601YS02001602        1.33      1.33      1.46      1.08         0.01
  YS02001602YS02001605        1.28      1.28      1.33      2.23         0.01
  YS02001605YS02001607        1.24      1.28      1.24      1.39         1.24
  YS02001607YS02001610        0.83      0.83      0.85      0.01         0.01
  YS02001610YS02001613        0.82      0.82      0.85      0.01         0.01
  YS02001613YS02001616        0.78      0.78      0.82      0.01         0.01
  YS02001616YS02001619        0.77      0.77      0.78      0.01         0.02
  YS02001619YS02001622        0.77      0.77      0.77      0.82         0.72
  YS02001622YS02001625        0.77      0.77      0.95      0.01         0.01
  YS02001625YS02001629        0.72      0.72      0.95      0.01         0.01
  YS02001629YS02163301        0.94      0.94      0.95      0.05         0.12
  YS02001633YS02163601        0.97      0.97      1.01      0.29         0.29
  YS02001641YS02001644        0.90      0.93      0.90      1.49         0.88
  YS02001644YS02001647        0.70      0.70      0.90      0.03         0.01
  YS02001647YS02001649        0.70      0.70      0.83      0.01         0.01
  YS02001649YS02001757        0.83      0.83      0.90      0.06         0.02
  YS02001652YS02001649        0.66      0.66      0.83      0.01         0.01
  YS02001655YS02001652        0.47      0.47      0.63      0.01         0.01
  YS02001658YS02001655        0.25      0.25      0.47      0.01         0.01
  YS02001661YS02001658        0.06      0.06      0.25      0.01         0.01
  YS02001664YS02001661        0.01      0.01      0.12      0.01         0.01
  YS02001745YS02001748        0.01      0.01      0.20      0.01         0.01
  YS02001748YS02001751        0.23      0.23      0.34      0.01         0.01
  YS02001751YS02001754        0.34      0.34      0.55      0.01         0.01
  YS02001754YS02001757        0.58      0.58      0.90      0.01         0.01
  YS02001757CaochengTiaoxuchi        0.90      0.90      1.95      0.36         0.34
  YS02001759YS02001757        0.81      0.81      0.90      0.01         0.02
  YS02001762YS02001759        0.77      0.77      0.81      0.01         0.01
  YS02001765YS02001762        0.72      0.72      0.77      0.01         0.01
  YS02001767YS02001765        0.69      0.69      0.72      0.01         0.02
  YS02001770YS02001767        0.69      0.69      0.69      0.54         0.46
  YS02001774YS02001770        0.66      0.66      0.75      0.01         0.01
  YS02001779YS02001774        0.54      0.54      0.75      0.01         0.01
  YS02001783YS02001784        0.53      0.55      0.53      0.69         0.53
  YS02001784YS02001785        0.42      0.53      0.42      0.91         0.42
  YS02001786YS02001788        0.01      0.42      0.01      0.78         0.01
  YS02001790YS02001791        0.01      0.01      0.01      0.51         0.01
  YS02001793JiankangQianchi        0.01      0.01      7.12      0.01         0.01
  YS02001882YS02001884        0.50      0.50      0.51      0.01         0.01
  YS02001884YS02001887        0.53      0.53      0.54      0.01         0.01
  YS02001887YS02001890        0.55      0.55      0.57      0.14         0.01
  YS02001890YS02001895        0.49      0.49      0.58      0.01         0.01
  YS02001895YS02001898        0.48      0.48      0.49      0.01         0.01
  YS02001898YS02001901        0.49      0.49      0.53      0.01         0.01
  YS02001901YS02001904        0.52      0.52      0.53      0.01         0.01
  YS02001904YS02001907        0.52      0.52      0.77      0.01         0.01
  YS02001907YS02006553        0.93      0.93      0.99      0.01         0.01
  YS02001910YS02001907        0.58      0.58      0.75      0.01         0.01
  YS02001915YS02001910        0.49      0.49      0.58      0.01         0.01
  YS02001918YS02001915        0.41      0.41      0.49      0.01         0.01
  YS02001920YS02001918        0.41      0.41      0.43      0.01         0.01
  YS02001923YS02001920        0.37      0.37      0.43      0.01         0.01
  YS02001926YS02001923        0.13      0.13      0.15      0.01         0.01
  YS02001929YS02001926        0.01      0.01      0.15      0.01         0.01
  YS02006553YS02006556        0.67      0.67      0.77      0.01         0.01
  YS02006556YS02006558        0.71      0.71      0.79      0.01         0.01
  YS02006558YS02006561        0.45      0.66      0.45      0.87         0.45
  YS02006561YS02001783        0.38      0.38      0.55      0.01         0.01
  YS02163301YS02001633        0.95      0.95      0.99      0.01         0.01
  YS02163601YS02164001        0.93      0.93      1.01      0.06         0.01
  YS02164001YS02001641        0.93      0.93      0.93      0.67         0.61
  
  
  ***************
  Pumping Summary
  ***************
  
  ---------------------------------------------------------------------------------------------------------
                                                  Min       Avg       Max     Total     Power    % Time Off
                        Percent   Number of      Flow      Flow      Flow    Volume     Usage    Pump Curve
  Pump                 Utilized   Start-Ups       LPS       LPS       LPS  10^6 ltr     Kw-hr    Low   High
  ---------------------------------------------------------------------------------------------------------
  CC-R1                   21.05           9      0.00    683.00    683.00     4.140     77.14    0.0   20.6
  CC-R2                   14.84           6      0.00    683.00    683.00     2.919     55.44    0.0   14.5
  CC-S1                   42.41           6      0.00    200.00    200.00     2.443     14.03    0.0    0.0
  CC-S2                   29.05           7      0.00    200.00    200.00     1.673      9.45    0.0    0.0
  JK-R1                    8.46          13      0.00   1000.00   1000.00     2.436     28.92    0.0    0.0
  JK-R2                    0.50           3      0.00   1000.00   1000.00     0.145      1.04    0.0    0.0
  JK-S                    17.95          35      0.00    300.00    300.00     1.551     21.61    0.0    0.0
  

  Analysis begun on:  Mon Feb 24 09:49:25 2025
  Analysis ended on:  Mon Feb 24 09:49:26 2025
  Total elapsed time: 00:00:01