
  EPA STORM WATER MANAGEMENT MODEL - VERSION 5.2 (Build 5.2.4)
  PYSWMM TOOLKIT API - VERSION v1.0 (2023-11-27)
  ------------------------------------------------------------

  WARNING 04: minimum elevation drop used for Conduit WS02004404WS02004405
  WARNING 03: negative offset ignored for Link YS02001904YS02001907
  
  ****************
  Analysis Options
  ****************
  Flow Units ............... LPS
  Process Models:
    Rainfall/Runoff ........ YES
    RDII ................... NO
    Snowmelt ............... NO
    Groundwater ............ NO
    Flow Routing ........... YES
    Ponding Allowed ........ NO
    Water Quality .......... NO
  Infiltration Method ...... HORTON
  Flow Routing Method ...... DYNWAVE
  Surcharge Method ......... EXTRAN
  Starting Date ............ 08/28/2015 08:00:00
  Ending Date .............. 08/28/2015 16:00:00
  Antecedent Dry Days ...... 8.0
  Report Time Step ......... 00:01:00
  Wet Time Step ............ 00:01:00
  Dry Time Step ............ 00:01:00
  Routing Time Step ........ 30.00 sec
  Variable Time Step ....... YES
  Maximum Trials ........... 8
  Number of Threads ........ 4
  Head Tolerance ........... 0.001500 m
  
  
  **************************        Volume         Depth
  Runoff Quantity Continuity     hectare-m            mm
  **************************     ---------       -------
  Total Precipitation ......         2.789        84.091
  Evaporation Loss .........         0.000         0.000
  Infiltration Loss ........         0.101         3.054
  Surface Runoff ...........         2.656        80.065
  Final Storage ............         0.033         0.995
  Continuity Error (%) .....        -0.027
  
  
  **************************        Volume        Volume
  Flow Routing Continuity        hectare-m      10^6 ltr
  **************************     ---------     ---------
  Dry Weather Inflow .......         0.025         0.251
  Wet Weather Inflow .......         2.656        26.560
  Groundwater Inflow .......         0.000         0.000
  RDII Inflow ..............         0.000         0.000
  External Inflow ..........         0.083         0.834
  External Outflow .........         1.799        17.987
  Flooding Loss ............         1.035        10.352
  Evaporation Loss .........         0.000         0.000
  Exfiltration Loss ........         0.000         0.000
  Initial Stored Volume ....         0.243         2.431
  Final Stored Volume ......         0.182         1.821
  Continuity Error (%) .....        -0.279
  
  
  *************************
  Highest Continuity Errors
  *************************
  Node YS02001583 (-13.80%)
  Node YS02001884 (4.65%)
  Node WS02006256 (-1.10%)
  
  
  ***************************
  Time-Step Critical Elements
  ***************************
  Link WS02006252WS02006251 (44.26%)
  Link WS02004404WS02004405 (14.11%)
  Link WS02006238WS02006235 (12.80%)
  Link YS02001791YS02001793 (6.28%)
  Link WS02003066WSF200 (6.20%)
  
  
  ********************************
  Highest Flow Instability Indexes
  ********************************
  Link WS02006113WS02006111 (47)
  Link WS02006111WS02006112 (25)
  Link WS02004404WS02004405 (21)
  Link WS02004403WS02004404 (19)
  Link WS02004405WS02004406 (18)
  
  
  *********************************
  Most Frequent Nonconverging Nodes
  *********************************
  Node CC-1 (13.16%)
  Node CC-2 (13.16%)
  Node JK-1 (13.16%)
  Node JK-2 (13.16%)
  Node WSC (13.16%)
  
  
  *************************
  Routing Time Step Summary
  *************************
  Minimum Time Step           :     0.00 sec
  Average Time Step           :     1.95 sec
  Maximum Time Step           :     7.04 sec
  % of Time in Steady State   :     0.00
  Average Iterations per Step :     3.26
  % of Steps Not Converging   :    13.16
  Time Step Frequencies       :
     30.000 - 13.228 sec      :     0.00 %
     13.228 -  5.833 sec      :     6.53 %
      5.833 -  2.572 sec      :    18.04 %
      2.572 -  1.134 sec      :    25.72 %
      1.134 -  0.500 sec      :    49.71 %
  
  
  ***************************
  Subcatchment Runoff Summary
  ***************************
  
  ------------------------------------------------------------------------------------------------------------------------------
                            Total      Total      Total      Total     Imperv       Perv      Total       Total     Peak  Runoff
                           Precip      Runon       Evap      Infil     Runoff     Runoff     Runoff      Runoff   Runoff   Coeff
  Subcatchment                 mm         mm         mm         mm         mm         mm         mm    10^6 ltr      LPS
  ------------------------------------------------------------------------------------------------------------------------------
  sub60                     84.09       0.00       0.00       1.85      72.81       8.24      81.05        1.06   682.87   0.964
  sub61                     84.09       0.00       0.00       2.68      68.67      11.62      80.29        1.47   943.84   0.955
  sub62                     84.09       0.00       0.00       1.24      76.09       5.50      81.58        2.24  1327.97   0.970
  sub63                     84.09       0.00       0.00       4.92      58.74      19.47      78.21        1.78  1044.66   0.930
  sub64                     84.09       0.00       0.00       2.49      70.28      10.13      80.40        1.93  1073.49   0.956
  sub65                     84.09       0.00       0.00       2.16      71.91       8.78      80.69        2.22  1197.95   0.960
  sub66                     84.09       0.00       0.00       6.03      58.63      18.36      76.99        3.59  1546.12   0.916
  sub67                     84.09       0.00       0.00       1.19      76.13       5.54      81.67        1.52  1038.30   0.971
  sub68                     84.09       0.00       0.00       2.22      71.14       9.55      80.70        2.22  1363.13   0.960
  sub69                     84.09       0.00       0.00       1.98      71.37      10.64      82.01        3.04  1599.51   0.975
  sub70                     84.09       0.00       0.00       6.52      55.34      22.08      77.42        2.24   870.02   0.921
  sub71                     84.09       0.00       0.00       1.27      76.04       5.46      81.51        2.13  1163.50   0.969
  sub72                     84.09       0.00       0.00       1.12      76.81       4.76      81.57        1.12   558.92   0.970
  
  
  ******************
  Node Depth Summary
  ******************
  
  ---------------------------------------------------------------------------------
                                 Average  Maximum  Maximum  Time of Max    Reported
                                   Depth    Depth      HGL   Occurrence   Max Depth
  Node                 Type       Meters   Meters   Meters  days hr:min      Meters
  ---------------------------------------------------------------------------------
  WS02003060           JUNCTION     0.25     0.38     5.32     0  03:13        0.38
  WS02003066           JUNCTION     0.20     0.30     5.85     0  03:12        0.30
  WS02003067           JUNCTION     0.51     0.70     6.02     0  03:12        0.70
  WS02003069           JUNCTION     0.27     0.43     5.02     0  03:13        0.43
  WS02003072           JUNCTION     0.34     0.50     4.87     0  03:14        0.50
  WS02003073           JUNCTION     0.19     0.30     4.36     0  03:14        0.30
  WS02004401           JUNCTION     0.61     0.88     6.88     0  03:10        0.88
  WS02004402           JUNCTION     0.65     0.90     6.86     0  03:10        0.90
  WS02004403           JUNCTION     0.67     0.92     6.85     0  03:10        0.92
  WS02004404           JUNCTION     0.74     1.08     6.93     0  02:00        1.00
  WS02004405           JUNCTION     0.73     0.97     6.82     0  03:04        0.97
  WS02004406           JUNCTION     0.74     0.96     6.79     0  03:10        0.96
  WS02004407           JUNCTION     0.18     0.30     6.61     0  03:10        0.30
  WS02004409           JUNCTION     0.41     0.67     6.44     0  03:10        0.67
  WS02004410           JUNCTION     0.43     0.68     6.40     0  03:11        0.68
  WS02004411           JUNCTION     0.45     0.69     6.37     0  03:11        0.69
  WS02004412           JUNCTION     0.47     0.70     6.34     0  03:11        0.70
  WS02004413           JUNCTION     0.63     0.86     6.33     0  03:12        0.86
  WS02006109           JUNCTION     0.66     1.10     7.72     0  02:30        0.99
  WS02006110           JUNCTION     0.66     1.11     7.69     0  02:11        0.94
  WS02006111           JUNCTION     0.18     0.29     6.99     0  02:58        0.29
  WS02006112           JUNCTION     0.77     1.09     6.97     0  03:04        1.08
  WS02006113           JUNCTION     0.28     0.46     7.35     0  03:14        0.46
  WS02006115           JUNCTION     0.50     0.77     6.91     0  03:04        0.77
  WS02006116           JUNCTION     0.58     0.86     6.90     0  02:07        0.85
  WS02006228           JUNCTION     0.65     1.13     7.79     0  02:17        1.03
  WS02006229           JUNCTION     0.63     1.17     7.87     0  02:17        1.03
  WS02006230           JUNCTION     0.63     1.33     8.07     0  02:17        1.14
  WS02006231           JUNCTION     0.44     1.35     8.47     0  01:45        0.91
  WS02006232           JUNCTION     0.57     1.35     8.39     0  01:45        1.14
  WS02006234           JUNCTION     0.50     1.54     8.70     0  03:23        1.54
  WS02006235           JUNCTION     0.54     1.90     9.06     0  03:23        1.90
  WS02006238           JUNCTION     0.57     2.01     9.15     0  03:23        2.01
  WS02006239           JUNCTION     0.54     2.03     9.24     0  03:23        2.03
  WS02006240           JUNCTION     0.50     2.10     9.39     0  03:23        2.10
  WS02006242           JUNCTION     0.57     1.55     8.82     0  03:23        1.55
  WS02006243           JUNCTION     0.48     1.48     8.90     0  03:23        1.48
  WS02006245           JUNCTION     0.48     1.56     9.04     0  03:23        1.56
  WS02006247           JUNCTION     0.51     1.47     8.97     0  03:23        1.47
  WS02006248           JUNCTION     0.47     1.10     8.69     0  01:41        1.10
  WS02006249           JUNCTION     0.50     1.09     8.69     0  01:41        1.09
  WS02006251           JUNCTION     0.50     1.36     9.03     0  01:41        1.26
  WS02006252           JUNCTION     0.36     1.50     9.74     0  00:00        0.83
  WS02006256           JUNCTION     1.03     2.35     9.28     0  00:00        2.35
  WSF200               JUNCTION     0.18     0.29     5.52     0  03:12        0.29
  YS02001580           JUNCTION     0.11     1.05     9.59     0  01:33        0.77
  YS02001583           JUNCTION     0.15     1.14     9.64     0  01:33        0.81
  YS02001586           JUNCTION     0.22     1.13     9.30     0  01:33        1.13
  YS02001590           JUNCTION     0.32     1.40     9.26     0  01:31        1.37
  YS02001593           JUNCTION     0.26     1.37     9.23     0  01:33        1.29
  YS02001596           JUNCTION     0.34     1.71     9.13     0  01:33        1.65
  YS02001600           JUNCTION     0.40     1.87     9.00     0  01:32        1.86
  YS02001601           JUNCTION     0.59     2.06     8.90     0  01:32        2.06
  YS02001602           JUNCTION     0.50     1.87     8.77     0  01:33        1.87
  YS02001605           JUNCTION     0.47     1.78     8.68     0  01:33        1.78
  YS02001607           JUNCTION     0.47     1.65     8.50     0  02:12        1.65
  YS02001610           JUNCTION     0.52     1.68     8.48     0  01:33        1.68
  YS02001613           JUNCTION     0.47     1.69     8.53     0  02:23        1.69
  YS02001616           JUNCTION     0.40     1.61     8.52     0  01:33        1.61
  YS02001619           JUNCTION     0.38     1.61     8.54     0  01:33        1.61
  YS02001622           JUNCTION     0.37     1.62     8.52     0  01:33        1.57
  YS02001625           JUNCTION     0.64     1.78     8.38     0  01:33        1.78
  YS02001629           JUNCTION     0.50     1.85     8.40     0  01:33        1.85
  YS02001633           JUNCTION     0.58     2.07     8.53     0  01:35        2.03
  YS02001641           JUNCTION     0.56     1.97     8.41     0  01:35        1.95
  YS02001644           JUNCTION     0.56     1.92     8.35     0  01:35        1.92
  YS02001647           JUNCTION     0.35     1.83     8.44     0  01:35        1.79
  YS02001649           JUNCTION     0.40     2.05     8.44     0  01:35        2.05
  YS02001652           JUNCTION     0.29     2.16     8.76     0  01:35        1.92
  YS02001655           JUNCTION     0.23     2.20     9.05     0  01:35        1.75
  YS02001658           JUNCTION     0.17     2.30     9.44     0  01:35        1.53
  YS02001661           JUNCTION     0.18     2.46     9.86     0  01:36        1.35
  YS02001664           JUNCTION     0.06     2.31    10.23     0  01:36        0.92
  YS02001745           JUNCTION     0.09     2.35     9.87     0  01:36        0.85
  YS02001748           JUNCTION     0.16     2.27     9.35     0  01:36        1.28
  YS02001751           JUNCTION     0.20     2.20     9.08     0  01:36        1.46
  YS02001754           JUNCTION     0.27     2.20     8.81     0  01:35        1.71
  YS02001757           JUNCTION     0.43     2.21     8.47     0  01:36        2.05
  YS02001759           JUNCTION     0.37     2.21     8.57     0  01:36        2.05
  YS02001762           JUNCTION     0.36     2.15     8.55     0  01:36        2.02
  YS02001765           JUNCTION     0.34     2.10     8.55     0  01:36        1.98
  YS02001767           JUNCTION     0.34     2.03     8.52     0  01:35        1.94
  YS02001770           JUNCTION     0.35     1.95     8.44     0  01:35        1.95
  YS02001774           JUNCTION     0.41     2.04     8.46     0  01:35        2.00
  YS02001779           JUNCTION     0.25     1.68     8.37     0  01:35        1.68
  YS02001783           JUNCTION     0.25     1.59     7.73     0  01:34        1.24
  YS02001784           JUNCTION     0.26     1.50     7.57     0  01:34        1.12
  YS02001786           JUNCTION     0.22     1.24     7.27     0  01:34        0.87
  YS02001788           JUNCTION     0.16     0.62     6.60     0  01:39        0.62
  YS02001790           JUNCTION     0.19     0.73     6.37     0  01:39        0.72
  YS02001791           JUNCTION     0.12     0.44     5.91     0  01:38        0.42
  YS02001793           JUNCTION     0.06     0.30     5.13     0  01:55        0.28
  YS02001882           JUNCTION     0.33     1.83     8.55     0  01:34        1.67
  YS02001884           JUNCTION     0.42     1.93     8.55     0  01:34        1.76
  YS02001887           JUNCTION     0.50     1.91     8.45     0  01:34        1.85
  YS02001890           JUNCTION     0.53     1.81     8.32     0  01:34        1.81
  YS02001895           JUNCTION     0.30     1.75     8.50     0  01:34        1.56
  YS02001898           JUNCTION     0.30     1.77     8.51     0  01:34        1.56
  YS02001901           JUNCTION     0.42     1.87     8.48     0  01:34        1.67
  YS02001904           JUNCTION     0.40     1.83     8.46     0  01:34        1.64
  YS02001907           JUNCTION     0.72     1.96     8.25     0  01:34        1.96
  YS02001910           JUNCTION     0.52     2.06     8.57     0  01:34        1.97
  YS02001915           JUNCTION     0.33     2.00     8.72     0  01:34        1.93
  YS02001918           JUNCTION     0.19     1.81     8.88     0  01:34        1.81
  YS02001920           JUNCTION     0.27     2.14     9.15     0  01:34        1.87
  YS02001923           JUNCTION     0.15     2.03     9.29     0  01:35        1.62
  YS02001926           JUNCTION     0.18     1.90     9.35     0  01:35        1.44
  YS02001929           JUNCTION     0.10     1.78     9.47     0  01:35        1.19
  YS02006553           JUNCTION     0.73     2.06     8.34     0  01:34        1.98
  YS02006556           JUNCTION     0.70     2.14     8.46     0  01:34        1.97
  YS02006558           JUNCTION     0.74     2.22     8.49     0  01:34        2.02
  YS02006561           JUNCTION     0.16     1.25     7.91     0  01:34        0.90
  YS02163301           JUNCTION     0.52     2.03     8.55     0  01:33        1.91
  YS02163601           JUNCTION     0.62     2.08     8.48     0  01:35        2.02
  YS02164001           JUNCTION     0.55     1.99     8.45     0  01:35        1.94
  CC-1                 OUTFALL      0.00     0.00     0.00     0  00:00        0.00
  CC-2                 OUTFALL      0.00     0.00     0.00     0  00:00        0.00
  JK-1                 OUTFALL      0.00     0.00     0.00     0  00:00        0.00
  JK-2                 OUTFALL      0.00     0.00     0.00     0  00:00        0.00
  WSC                  OUTFALL      0.19     0.30     0.97     0  03:15        0.30
  CC-storage           STORAGE      0.99     1.81     7.31     0  02:19        1.81
  JK-storage           STORAGE      2.96     4.24     5.04     0  01:50        4.18
  
  
  *******************
  Node Inflow Summary
  *******************
  
  -------------------------------------------------------------------------------------------------
                                  Maximum  Maximum                  Lateral       Total        Flow
                                  Lateral    Total  Time of Max      Inflow      Inflow     Balance
                                   Inflow   Inflow   Occurrence      Volume      Volume       Error
  Node                 Type           LPS      LPS  days hr:min    10^6 ltr    10^6 ltr     Percent
  -------------------------------------------------------------------------------------------------
  WS02003060           JUNCTION     16.53   555.70     0  03:12       0.476        6.03       0.038
  WS02003066           JUNCTION      0.00   538.81     0  03:12           0        5.55       0.025
  WS02003067           JUNCTION      0.00   538.71     0  03:12           0        5.56       0.075
  WS02003069           JUNCTION      0.32   555.77     0  03:13     0.00922        6.03       0.065
  WS02003072           JUNCTION      0.00   555.39     0  03:13           0        6.03       0.117
  WS02003073           JUNCTION      1.82   556.97     0  03:14      0.0524        6.08       0.096
  WS02004401           JUNCTION      0.00   542.13     0  02:12           0        5.65       0.183
  WS02004402           JUNCTION      0.00   541.34     0  02:12           0        5.64       0.186
  WS02004403           JUNCTION      0.00   540.45     0  03:09           0        5.63       0.179
  WS02004404           JUNCTION      0.16   567.21     0  02:00     0.00467        5.63       0.148
  WS02004405           JUNCTION      0.04   604.93     0  02:10      0.0011        5.62       0.145
  WS02004406           JUNCTION      0.00   544.15     0  03:10           0        5.61       0.371
  WS02004407           JUNCTION      0.00   540.54     0  03:10           0        5.59       0.022
  WS02004409           JUNCTION      0.00   539.79     0  03:10           0        5.59       0.050
  WS02004410           JUNCTION      0.00   539.42     0  03:11           0        5.59       0.079
  WS02004411           JUNCTION      0.00   539.24     0  03:11           0        5.58       0.100
  WS02004412           JUNCTION      0.00   539.00     0  03:11           0        5.58       0.134
  WS02004413           JUNCTION      0.00   539.06     0  03:11           0        5.57       0.237
  WS02006109           JUNCTION      1.23   554.07     0  01:56      0.0354         5.7       0.106
  WS02006110           JUNCTION      0.00   554.93     0  02:17           0         5.7       0.135
  WS02006111           JUNCTION      0.00   560.99     0  02:43           0        5.69       0.018
  WS02006112           JUNCTION      0.00   543.12     0  02:58           0        5.68       0.310
  WS02006113           JUNCTION      0.00   566.01     0  02:17           0        5.69       0.038
  WS02006115           JUNCTION      0.00   550.40     0  02:42           0        5.67       0.118
  WS02006116           JUNCTION      0.00   540.80     0  01:58           0        5.66       0.105
  WS02006228           JUNCTION      0.00   552.47     0  01:56           0        5.67       0.025
  WS02006229           JUNCTION      0.00   552.10     0  01:56           0        5.67       0.111
  WS02006230           JUNCTION     10.28   620.97     0  03:23       0.296        5.68       0.066
  WS02006231           JUNCTION      0.00   629.74     0  03:23           0        5.38      -0.053
  WS02006232           JUNCTION      0.00   623.67     0  03:23           0        5.39       0.248
  WS02006234           JUNCTION      0.00   597.61     0  03:23           0        5.38      -0.265
  WS02006235           JUNCTION      0.00   566.90     0  03:23           0        5.45       0.267
  WS02006238           JUNCTION      0.00   423.13     0  03:20           0        4.34      -0.175
  WS02006239           JUNCTION      0.00   422.89     0  02:15           0        4.29      -0.167
  WS02006240           JUNCTION      0.00   420.17     0  02:35           0        4.26      -0.090
  WS02006242           JUNCTION      0.00   420.59     0  02:35           0        4.25       0.011
  WS02006243           JUNCTION      0.00   420.22     0  02:35           0        4.24       0.014
  WS02006245           JUNCTION      0.00   419.20     0  02:35           0        4.26       0.423
  WS02006247           JUNCTION      0.00   418.95     0  02:15           0        4.26       0.027
  WS02006248           JUNCTION      0.00   419.62     0  02:15           0        4.27       0.100
  WS02006249           JUNCTION      0.00   464.76     0  06:05           0        4.58       0.347
  WS02006251           JUNCTION      0.08   408.12     0  03:23     0.00222        4.58       0.005
  WS02006252           JUNCTION      0.00   400.00     0  00:00           0        4.57      -0.109
  WS02006256           JUNCTION      0.00   300.00     0  00:00           0        1.67      -1.087
  WSF200               JUNCTION      0.00   538.88     0  03:12           0        5.55       0.008
  YS02001580           JUNCTION      0.00   157.71     0  01:33           0      0.0045      -2.833
  YS02001583           JUNCTION      0.00   244.03     0  01:33           0      0.0145     -12.128
  YS02001586           JUNCTION    870.02   870.02     0  01:42        2.24        2.25       0.071
  YS02001590           JUNCTION      0.00   318.31     0  01:49           0        1.59      -0.032
  YS02001593           JUNCTION      0.00   318.09     0  01:49           0        1.59      -0.007
  YS02001596           JUNCTION      0.00   318.34     0  02:10           0        1.59      -0.013
  YS02001600           JUNCTION      0.00   318.14     0  01:49           0        1.59       0.003
  YS02001601           JUNCTION   1599.51  1917.14     0  01:40        3.04        4.62       0.006
  YS02001602           JUNCTION      0.00   576.49     0  01:33           0        2.57       0.014
  YS02001605           JUNCTION      0.00   576.21     0  01:33           0         2.4       0.014
  YS02001607           JUNCTION      0.00   575.91     0  01:33           0         2.4       0.072
  YS02001610           JUNCTION      0.00   874.31     0  01:41           0        2.86       0.070
  YS02001613           JUNCTION      0.00   538.78     0  01:42           0        2.19       0.073
  YS02001616           JUNCTION      0.00   538.44     0  01:42           0        2.19       0.009
  YS02001619           JUNCTION   1546.12  1546.12     0  01:42        3.59        5.32      -0.005
  YS02001622           JUNCTION      0.00  1011.92     0  01:40           0        4.86      -0.012
  YS02001625           JUNCTION      0.00  1428.24     0  01:43           0        5.19       0.171
  YS02001629           JUNCTION      0.00   934.42     0  01:33           0         3.8      -0.007
  YS02001633           JUNCTION   1198.15  1425.92     0  01:34        2.23        5.57       0.059
  YS02001641           JUNCTION      0.00  1425.20     0  01:34           0        5.14       0.053
  YS02001644           JUNCTION   1073.53  1930.15     0  01:34        1.93        7.07       0.036
  YS02001647           JUNCTION      0.00  1929.76     0  01:34           0        6.21       0.005
  YS02001649           JUNCTION      0.00  2194.48     0  01:35           0        7.99       0.001
  YS02001652           JUNCTION      0.00  1084.02     0  01:37           0        1.78      -0.085
  YS02001655           JUNCTION      0.15  1083.86     0  01:37     0.00443        1.78      -0.104
  YS02001658           JUNCTION      0.00  1083.65     0  01:37           0        1.78      -0.062
  YS02001661           JUNCTION      0.00  1080.97     0  01:37           0        1.78       0.027
  YS02001664           JUNCTION   1044.66  1044.66     0  01:39        1.78        1.78      -0.025
  YS02001745           JUNCTION    682.88   787.50     0  01:36        1.07        1.07       0.173
  YS02001748           JUNCTION      0.04   906.90     0  01:35      0.0013        1.07      -0.348
  YS02001751           JUNCTION      0.01   691.22     0  01:38    0.000317        1.08       0.066
  YS02001754           JUNCTION      0.26   690.64     0  01:38     0.00749        1.09      -0.190
  YS02001757           JUNCTION      0.00  3626.89     0  01:37           0        12.4       0.030
  YS02001759           JUNCTION    943.88  1544.11     0  01:36        1.47        3.29      -0.012
  YS02001762           JUNCTION      0.00   786.03     0  01:36           0        1.81       0.004
  YS02001765           JUNCTION      0.00   788.28     0  01:36           0        1.81       0.000
  YS02001767           JUNCTION      0.54   789.22     0  01:36      0.0154        1.81      -0.006
  YS02001770           JUNCTION   1328.12  1328.12     0  01:39        2.24        2.28      -0.034
  YS02001774           JUNCTION      0.00   823.90     0  01:39           0       0.503       0.167
  YS02001779           JUNCTION      0.01   823.29     0  01:39    0.000144       0.457      -0.164
  YS02001783           JUNCTION      0.00  1171.29     0  01:36           0        4.78       0.004
  YS02001784           JUNCTION      1.06  1172.48     0  01:36      0.0305        4.81       0.010
  YS02001786           JUNCTION      0.06  1172.38     0  01:36     0.00162        4.81       0.015
  YS02001788           JUNCTION      0.07  1172.47     0  01:36     0.00204        4.81       0.006
  YS02001790           JUNCTION      0.15  1173.97     0  01:35     0.00446        4.82       0.024
  YS02001791           JUNCTION      0.00  1293.89     0  01:39           0        4.82      -0.032
  YS02001793           JUNCTION      0.00  1252.37     0  01:41           0        4.82       0.004
  YS02001882           JUNCTION      0.00   123.24     0  01:34           0      0.0131       4.766
  YS02001884           JUNCTION      0.00   135.90     0  01:33           0      0.0491       4.877
  YS02001887           JUNCTION   1038.75  1039.35     0  01:38        1.53        1.57       0.270
  YS02001890           JUNCTION      0.00  1039.66     0  01:38           0        1.53       0.316
  YS02001895           JUNCTION      0.00   594.41     0  01:34           0         1.3       0.107
  YS02001898           JUNCTION      0.00   594.28     0  01:34           0         1.3      -0.005
  YS02001901           JUNCTION      0.00   593.88     0  01:34           0         1.3       0.246
  YS02001904           JUNCTION      0.00   593.99     0  01:34           0        1.31       0.197
  YS02001907           JUNCTION      0.00  2428.52     0  01:39           0        4.69       0.360
  YS02001910           JUNCTION      0.00  1725.30     0  01:40           0        3.33       0.210
  YS02001915           JUNCTION   1163.52  1725.47     0  01:40        2.13        3.39       0.043
  YS02001918           JUNCTION      0.00   728.15     0  01:34           0        1.29      -0.006
  YS02001920           JUNCTION      2.87   730.37     0  01:35      0.0827        1.27       0.069
  YS02001923           JUNCTION      0.04   975.79     0  01:34     0.00109        1.17      -0.062
  YS02001926           JUNCTION      0.05  1199.46     0  01:35      0.0015        1.15      -0.067
  YS02001929           JUNCTION    558.92   908.56     0  01:35        1.12        1.13      -0.033
  YS02006553           JUNCTION      0.00   792.71     0  02:05           0        2.68       0.436
  YS02006556           JUNCTION      0.00   792.36     0  02:05           0        2.69       0.295
  YS02006558           JUNCTION   1364.01  1364.01     0  01:39        2.25        4.86       0.074
  YS02006561           JUNCTION      0.00  1171.34     0  01:37           0        4.78      -0.002
  YS02163301           JUNCTION      0.00   892.79     0  01:34           0        3.78       0.033
  YS02163601           JUNCTION      0.11  1425.99     0  01:34     0.00317        5.14       0.094
  YS02164001           JUNCTION      0.00  1425.88     0  01:34           0        5.14       0.042
  CC-1                 OUTFALL       0.00   683.00     0  00:00           0        4.73       0.000
  CC-2                 OUTFALL       0.00   683.00     0  00:00           0        3.92       0.000
  JK-1                 OUTFALL       0.00  1000.00     0  00:00           0        2.81       0.000
  JK-2                 OUTFALL       0.00  1000.00     0  00:00           0       0.465       0.000
  WSC                  OUTFALL       0.00   556.69     0  03:15           0        6.07       0.000
  CC-storage           STORAGE       0.00  3627.72     0  01:37           0        14.6      -0.211
  JK-storage           STORAGE       0.00  1223.11     0  01:46           0        4.97      -0.341
  
  
  **********************
  Node Surcharge Summary
  **********************
  
  Surcharging occurs when water rises above the top of the highest conduit.
  ---------------------------------------------------------------------
                                               Max. Height   Min. Depth
                                   Hours       Above Crown    Below Rim
  Node                 Type      Surcharged         Meters       Meters
  ---------------------------------------------------------------------
  WS02004404           JUNCTION        0.03          0.077        2.703
  WS02006109           JUNCTION        2.27          0.277        1.543
  WS02006110           JUNCTION        0.98          0.197        1.653
  WS02006112           JUNCTION        1.26          0.089        1.591
  WS02006228           JUNCTION        2.26          0.304        1.896
  WS02006229           JUNCTION        2.28          0.372        2.078
  WS02006230           JUNCTION        0.99          0.247        1.323
  WS02006231           JUNCTION        1.18          0.640        0.890
  WS02006232           JUNCTION        2.30          0.649        0.831
  WS02006234           JUNCTION        1.54          0.819        0.421
  WS02006235           JUNCTION        2.23          1.189        0.101
  WS02006238           JUNCTION        2.28          1.286        0.144
  WS02006239           JUNCTION        2.23          1.290        0.000
  WS02006240           JUNCTION        2.25          1.390        0.000
  WS02006242           JUNCTION        2.27          0.820        0.000
  WS02006243           JUNCTION        2.24          0.770        0.000
  WS02006245           JUNCTION        2.24          0.850        0.000
  WS02006247           JUNCTION        2.24          0.760        0.000
  WS02006248           JUNCTION        2.23          0.380        0.000
  WS02006249           JUNCTION        2.23          0.390        0.000
  WS02006251           JUNCTION        1.27          0.332        0.848
  WS02006252           JUNCTION        2.57          1.100        0.000
  WS02006256           JUNCTION        6.68          2.050        0.000
  YS02001580           JUNCTION        0.83          0.450        0.000
  YS02001583           JUNCTION        0.84          0.500        0.000
  YS02001586           JUNCTION        1.02          0.510        0.000
  YS02001590           JUNCTION        1.11          0.750        0.000
  YS02001593           JUNCTION        1.11          0.751        0.089
  YS02001596           JUNCTION        1.24          0.981        0.089
  YS02001600           JUNCTION        1.41          1.190        0.000
  YS02001601           JUNCTION        1.70          1.440        0.000
  YS02001602           JUNCTION        1.63          1.270        0.000
  YS02001605           JUNCTION        1.60          1.180        0.000
  YS02001607           JUNCTION        1.12          0.649        0.031
  YS02001610           JUNCTION        1.15          0.680        0.000
  YS02001613           JUNCTION        1.12          0.686        0.014
  YS02001616           JUNCTION        1.07          0.610        0.000
  YS02001619           JUNCTION        1.06          0.610        0.000
  YS02001622           JUNCTION        1.06          0.620        0.000
  YS02001625           JUNCTION        1.26          0.780        0.000
  YS02001629           JUNCTION        1.00          0.470        0.000
  YS02001633           JUNCTION        1.30          1.053        0.007
  YS02001641           JUNCTION        1.26          0.974        0.126
  YS02001644           JUNCTION        1.24          0.920        0.000
  YS02001647           JUNCTION        1.02          0.825        0.075
  YS02001649           JUNCTION        1.19          1.050        0.000
  YS02001652           JUNCTION        0.95          1.130        0.000
  YS02001655           JUNCTION        0.72          1.200        0.000
  YS02001658           JUNCTION        0.36          1.300        0.000
  YS02001661           JUNCTION        0.11          1.390        0.000
  YS02001664           JUNCTION        0.01          1.310        0.000
  YS02001745           JUNCTION        0.01          1.350        0.000
  YS02001748           JUNCTION        0.26          1.190        0.000
  YS02001751           JUNCTION        0.52          1.200        0.000
  YS02001754           JUNCTION        0.84          1.150        0.000
  YS02001757           JUNCTION        1.27          1.210        0.000
  YS02001759           JUNCTION        1.17          1.210        0.000
  YS02001762           JUNCTION        1.13          1.150        0.000
  YS02001765           JUNCTION        1.08          1.100        0.000
  YS02001767           JUNCTION        1.03          1.030        0.000
  YS02001770           JUNCTION        1.00          0.920        0.000
  YS02001774           JUNCTION        1.11          1.036        0.014
  YS02001779           JUNCTION        0.82          0.680        0.000
  YS02001783           JUNCTION        0.70          0.793        0.807
  YS02001784           JUNCTION        0.67          0.705        0.785
  YS02001786           JUNCTION        0.56          0.439        0.991
  YS02001882           JUNCTION        0.63          0.830        0.000
  YS02001884           JUNCTION        0.65          0.870        0.000
  YS02001887           JUNCTION        0.69          0.863        0.087
  YS02001890           JUNCTION        0.70          0.760        0.000
  YS02001895           JUNCTION        0.62          0.750        0.000
  YS02001898           JUNCTION        0.62          0.740        0.000
  YS02001901           JUNCTION        0.67          0.870        0.000
  YS02001904           JUNCTION        0.66          0.830        0.020
  YS02001907           JUNCTION        0.91          0.950        0.000
  YS02001910           JUNCTION        0.73          1.064        0.036
  YS02001915           JUNCTION        0.64          1.000        0.000
  YS02001918           JUNCTION        0.54          0.810        0.000
  YS02001920           JUNCTION        0.56          1.140        0.000
  YS02001923           JUNCTION        0.20          0.820        0.000
  YS02001926           JUNCTION        0.23          0.900        0.000
  YS02001929           JUNCTION        0.03          0.780        0.000
  YS02006553           JUNCTION        0.95          1.058        0.132
  YS02006556           JUNCTION        0.82          1.105        0.245
  YS02006558           JUNCTION        0.81          1.125        0.275
  YS02006561           JUNCTION        0.51          0.453        0.697
  YS02163301           JUNCTION        1.28          1.030        0.000
  YS02163601           JUNCTION        1.34          1.079        0.001
  YS02164001           JUNCTION        1.26          0.995        0.105
  
  
  *********************
  Node Flooding Summary
  *********************
  
  Flooding refers to all water that overflows a node, whether it ponds or not.
  --------------------------------------------------------------------------
                                                             Total   Maximum
                                 Maximum   Time of Max       Flood    Ponded
                        Hours       Rate    Occurrence      Volume     Depth
  Node                 Flooded       LPS   days hr:min    10^6 ltr    Meters
  --------------------------------------------------------------------------
  WS02006239              0.01      3.39      0  03:23       0.000     0.000
  WS02006240              0.01      3.94      0  03:23       0.000     0.000
  WS02006242              0.01     18.49      0  03:23       0.000     0.000
  WS02006243              0.01      4.72      0  03:23       0.000     0.000
  WS02006245              0.01      4.86      0  03:23       0.000     0.000
  WS02006247              0.01      4.69      0  03:23       0.000     0.000
  WS02006248              0.02     26.76      0  01:41       0.001     0.000
  WS02006249              1.23     95.93      0  01:41       0.295     0.000
  WS02006252              0.01    245.63      0  00:00       0.000     0.000
  WS02006256              1.54    293.19      0  00:00       0.545     0.000
  YS02001580              0.01     86.00      0  01:33       0.001     0.000
  YS02001583              0.01    145.40      0  01:33       0.000     0.000
  YS02001586              0.68    552.55      0  01:42       0.649     0.000
  YS02001590              0.01    118.78      0  01:31       0.000     0.000
  YS02001600              0.01      6.20      0  01:33       0.000     0.000
  YS02001601              0.93   1519.13      0  01:40       2.049     0.000
  YS02001602              0.85     62.10      0  02:15       0.173     0.000
  YS02001605              0.01      3.86      0  01:33       0.000     0.000
  YS02001610              0.75    874.23      0  01:41       1.124     0.000
  YS02001616              0.01     65.67      0  01:33       0.000     0.000
  YS02001619              0.01     72.48      0  01:33       0.000     0.000
  YS02001622              0.01    151.74      0  01:33       0.000     0.000
  YS02001625              0.72   1428.10      0  01:43       1.814     0.000
  YS02001629              0.18    418.06      0  01:38       0.128     0.000
  YS02001644              0.29   1469.71      0  01:39       0.846     0.000
  YS02001649              0.01    199.92      0  01:36       0.004     0.000
  YS02001652              0.01     77.77      0  01:35       0.000     0.000
  YS02001655              0.01    503.13      0  01:35       0.001     0.000
  YS02001658              0.01    457.95      0  01:36       0.001     0.000
  YS02001661              0.01    334.72      0  01:36       0.000     0.000
  YS02001664              0.01    199.12      0  01:36       0.000     0.000
  YS02001745              0.01    454.89      0  01:36       0.001     0.000
  YS02001748              0.01    538.30      0  01:36       0.002     0.000
  YS02001751              0.01    267.42      0  01:36       0.001     0.000
  YS02001754              0.01    283.60      0  01:35       0.001     0.000
  YS02001757              0.01     34.16      0  01:36       0.000     0.000
  YS02001759              0.01      3.49      0  01:36       0.000     0.000
  YS02001762              0.01     10.02      0  01:36       0.000     0.000
  YS02001765              0.01      6.23      0  01:36       0.000     0.000
  YS02001767              0.01    175.40      0  01:35       0.000     0.000
  YS02001770              0.04    451.74      0  01:35       0.005     0.000
  YS02001779              0.26    822.95      0  01:39       0.437     0.000
  YS02001882              0.01      9.80      0  01:34       0.000     0.000
  YS02001884              0.01     73.07      0  01:34       0.000     0.000
  YS02001890              0.22    519.01      0  01:38       0.216     0.000
  YS02001895              0.01    230.84      0  01:34       0.000     0.000
  YS02001898              0.01    248.90      0  01:34       0.001     0.000
  YS02001901              0.01     25.12      0  01:34       0.000     0.000
  YS02001907              0.48   2427.74      0  01:39       2.040     0.000
  YS02001915              0.01    226.00      0  01:34       0.000     0.000
  YS02001918              0.01    265.65      0  01:35       0.004     0.000
  YS02001920              0.01    126.70      0  01:34       0.000     0.000
  YS02001923              0.01    359.15      0  01:35       0.002     0.000
  YS02001926              0.01    842.81      0  01:35       0.005     0.000
  YS02001929              0.01    769.80      0  01:35       0.002     0.000
  YS02163301              0.01     28.18      0  01:33       0.000     0.000
  
  
  **********************
  Storage Volume Summary
  **********************
  
  ------------------------------------------------------------------------------------------------
                         Average    Avg   Evap  Exfil     Maximum    Max    Time of Max    Maximum
                          Volume   Pcnt   Pcnt   Pcnt      Volume   Pcnt     Occurrence    Outflow
  Storage Unit           1000 m³   Full   Loss   Loss     1000 m³   Full    days hr:min        LPS
  ------------------------------------------------------------------------------------------------
  CC-storage               2.748   42.9    0.0    0.0       5.056   78.9       0  02:19    1783.53
  JK-storage               0.149   51.0    0.0    0.0       0.213   73.2       0  01:50    2300.00
  
  
  ***********************
  Outfall Loading Summary
  ***********************
  
  -----------------------------------------------------------
                         Flow       Avg       Max       Total
                         Freq      Flow      Flow      Volume
  Outfall Node           Pcnt       LPS       LPS    10^6 ltr
  -----------------------------------------------------------
  CC-1                  25.17    683.00    683.00       4.727
  CC-2                  22.86    683.00    683.00       3.916
  JK-1                  12.41   1000.00   1000.00       2.808
  JK-2                   1.96   1000.00   1000.00       0.465
  WSC                   99.96    271.74    556.69       6.070
  -----------------------------------------------------------
  System                32.47   3637.74   3917.60      17.987
  
  
  ********************
  Link Flow Summary
  ********************
  
  -----------------------------------------------------------------------------
                                 Maximum  Time of Max   Maximum    Max/    Max/
                                  |Flow|   Occurrence   |Veloc|    Full    Full
  Link                 Type          LPS  days hr:min     m/sec    Flow   Depth
  -----------------------------------------------------------------------------
  1                    CONDUIT    556.69     0  03:15      2.83    0.19    0.30
  WS02003060WS02003069 CONDUIT    555.45     0  03:13      1.65    0.22    0.34
  WS02003066WSF200     CONDUIT    538.88     0  03:12      2.85    0.09    0.22
  WS02003067WS02003066 CONDUIT    538.81     0  03:12      1.21    0.17    0.42
  WS02003069WS02003072 CONDUIT    555.39     0  03:13      1.37    0.27    0.39
  WS02003072WS02003073 CONDUIT    555.15     0  03:14      1.44    1.20    0.37
  WS02004401WS02004402 CONDUIT    541.34     0  02:12      0.98    0.65    0.89
  WS02004402WS02004403 CONDUIT    540.45     0  03:09      0.97    0.78    0.91
  WS02004403WS02004404 CONDUIT    567.05     0  02:00      0.92    0.41    0.96
  WS02004404WS02004405 CONDUIT    604.89     0  02:10      1.08    5.93    0.98
  WS02004405WS02004406 CONDUIT    544.15     0  03:10      0.99    1.07    0.96
  WS02004406WS02004407 CONDUIT    540.54     0  03:10      1.04    0.24    0.63
  WS02004407WS02004409 CONDUIT    539.79     0  03:10      1.53    0.19    0.48
  WS02004409WS02004410 CONDUIT    539.42     0  03:11      1.00    0.70    0.68
  WS02004410WS02004411 CONDUIT    539.24     0  03:11      0.94    0.74    0.69
  WS02004411WS02004412 CONDUIT    539.00     0  03:11      0.92    0.77    0.70
  WS02004412WS02004413 CONDUIT    539.06     0  03:11      0.82    0.36    0.78
  WS02004413WS02003067 CONDUIT    538.71     0  03:12      1.11    0.23    0.59
  WS02006109WS02006110 CONDUIT    554.93     0  02:17      1.10    1.07    1.00
  WS02006110WS02006113 CONDUIT    566.01     0  02:17      1.37    0.51    0.79
  WS02006111WS02006112 CONDUIT    543.12     0  02:58      1.81    0.26    0.67
  WS02006112WS02006115 CONDUIT    550.40     0  02:42      0.83    0.32    0.88
  WS02006113WS02006111 CONDUIT    560.99     0  02:43      2.47    0.67    0.46
  WS02006115WS02006116 CONDUIT    540.80     0  01:58      1.02    0.69    0.78
  WS02006116WS02004401 CONDUIT    542.13     0  02:12      0.98    0.75    0.87
  WS02006228WS02006109 CONDUIT    552.84     0  01:56      1.10    2.42    1.00
  WS02006229WS02006228 CONDUIT    552.47     0  01:56      1.14    1.83    1.00
  WS02006230WS02006229 CONDUIT    552.10     0  01:56      1.43   12.29    1.00
  WS02006231WS02006230 CONDUIT    610.69     0  03:23      1.66    9.26    1.00
  WS02006232WS02006231 CONDUIT    629.74     0  03:23      1.64    1.32    1.00
  WS02006234WS02006232 CONDUIT    623.67     0  03:23      1.62    1.26    1.00
  WS02006235WS02006234 CONDUIT    597.61     0  03:23      1.55    6.31    1.00
  WS02006238WS02006235 CONDUIT    423.33     0  02:15      1.45    0.94    1.00
  WS02006239WS02006238 CONDUIT    423.13     0  03:20      1.18    1.35    1.00
  WS02006240WS02006239 CONDUIT    422.89     0  02:15      1.28    1.33    1.00
  WS02006242WS02006240 CONDUIT    420.17     0  02:35      1.18    1.67    1.00
  WS02006243WS02006242 CONDUIT    420.59     0  02:35      1.44    0.90    1.00
  WS02006245WS02006243 CONDUIT    420.22     0  02:35      1.45    1.24    1.00
  WS02006247WS02006245 CONDUIT    419.20     0  02:35      1.43    3.32    1.00
  WS02006248WS02006247 CONDUIT    418.95     0  02:15      1.44    0.91    1.00
  WS02006249WS02006248 CONDUIT    419.62     0  02:15      1.38    2.30    1.00
  WS02006251WS02006249 CONDUIT    464.76     0  06:05      1.99    1.34    1.00
  WS02006252WS02006251 CONDUIT    408.04     0  03:23     27.12    1.50    1.00
  WS02006256WS02006235 CONDUIT    288.91     0  00:00      4.23    3.06    1.00
  WSF200WS02003060     CONDUIT    539.17     0  03:12      2.07    0.12    0.28
  YS02001580YS02001583 CONDUIT    157.71     0  01:33      0.88    0.61    1.00
  YS02001583YS02001586 CONDUIT    201.45     0  01:33      0.92    0.30    1.00
  YS02001586YS02001590 CONDUIT    318.31     0  01:49      1.28    0.56    1.00
  YS02001590YS02001593 CONDUIT    318.09     0  01:49      1.13    2.00    1.00
  YS02001593YS02001596 CONDUIT    318.34     0  02:10      1.73    0.50    1.00
  YS02001596YS02001600 CONDUIT    318.14     0  01:49      1.23    0.62    1.00
  YS02001600YS02001601 CONDUIT    318.12     0  02:10      1.13    0.55    1.00
  YS02001601YS02001602 CONDUIT    576.49     0  01:33      2.04    2.08    1.00
  YS02001602YS02001605 CONDUIT    576.21     0  01:33      2.04   12.19    1.00
  YS02001605YS02001607 CONDUIT    575.91     0  01:33      2.04    3.16    1.00
  YS02001607YS02001610 CONDUIT    542.43     0  01:33      0.71    0.52    1.00
  YS02001610YS02001613 CONDUIT    538.42     0  01:42      0.69    0.62    1.00
  YS02001613YS02001616 CONDUIT    538.78     0  01:42      0.69    0.46    1.00
  YS02001616YS02001619 CONDUIT    538.44     0  01:42      0.69    0.93    1.00
  YS02001619YS02001622 CONDUIT   1011.92     0  01:40      1.29    1.49    1.00
  YS02001622YS02001625 CONDUIT   1011.81     0  01:41      1.29    0.54    1.00
  YS02001625YS02001629 CONDUIT    934.42     0  01:33      1.19    0.44    1.00
  YS02001629YS02163301 CONDUIT    892.79     0  01:34      1.14    1.10    1.00
  YS02001633YS02163601 CONDUIT   1425.88     0  01:34      1.82    1.50    1.00
  YS02001641YS02001644 CONDUIT   1425.50     0  01:34      1.81    4.61    1.00
  YS02001644YS02001647 CONDUIT   1929.76     0  01:34      2.46    1.13    1.00
  YS02001647YS02001649 CONDUIT   1937.42     0  01:34      2.47    1.02    1.00
  YS02001649YS02001757 CONDUIT   2193.16     0  01:35      2.79    1.33    1.00
  YS02001652YS02001649 CONDUIT   1084.19     0  01:37      1.38    0.54    1.00
  YS02001655YS02001652 CONDUIT   1084.02     0  01:37      1.56    0.53    1.00
  YS02001658YS02001655 CONDUIT   1083.70     0  01:37      2.04    0.46    1.00
  YS02001661YS02001658 CONDUIT   1083.65     0  01:37      2.46    0.43    1.00
  YS02001664YS02001661 CONDUIT   1080.97     0  01:37      2.55    0.34    1.00
  YS02001745YS02001748 CONDUIT    690.27     0  01:38      2.42    0.27    1.00
  YS02001748YS02001751 CONDUIT    691.21     0  01:38      1.89    0.35    1.00
  YS02001751YS02001754 CONDUIT    690.38     0  01:38      1.56    0.33    1.00
  YS02001754YS02001757 CONDUIT    690.86     0  01:38      0.88    0.28    1.00
  YS02001757CaochengTiaoxuchi CONDUIT   3627.72     0  01:37      4.63    1.57    1.00
  YS02001759YS02001757 CONDUIT   1543.47     0  01:36      1.97    1.10    1.00
  YS02001762YS02001759 CONDUIT    785.31     0  01:36      1.00    0.90    1.00
  YS02001765YS02001762 CONDUIT    786.03     0  01:36      1.00    0.74    1.00
  YS02001767YS02001765 CONDUIT    788.28     0  01:36      1.00    0.99    1.00
  YS02001770YS02001767 CONDUIT    788.69     0  01:36      1.00    3.12    1.00
  YS02001774YS02001770 CONDUIT    823.90     0  01:39      1.05    0.53    1.00
  YS02001779YS02001774 CONDUIT    823.28     0  01:39      1.05    0.41    1.00
  YS02001783YS02001784 CONDUIT   1171.42     0  01:36      2.33    1.61    1.00
  YS02001784YS02001785 CONDUIT   1172.32     0  01:36      2.33    2.73    1.00
  YS02001786YS02001788 CONDUIT   1172.40     0  01:36      2.49    2.26    0.89
  YS02001788YS02001790 CONDUIT   1173.81     0  01:35      2.72    0.87    0.84
  YS02001790YS02001791 CONDUIT   1293.89     0  01:39      3.44    1.41    0.71
  YS02001791YS02001793 CONDUIT   1252.37     0  01:41      6.65    0.54    0.45
  YS02001793JiankangQianchi CONDUIT   1223.11     0  01:46      2.42    0.10    0.65
  YS02001882YS02001884 CONDUIT    123.24     0  01:34      0.17    0.14    1.00
  YS02001884YS02001887 CONDUIT    135.90     0  01:33      0.17    0.18    1.00
  YS02001887YS02001890 CONDUIT   1039.66     0  01:38      1.32    1.78    1.00
  YS02001890YS02001895 CONDUIT    594.41     0  01:34      0.76    0.28    1.00
  YS02001895YS02001898 CONDUIT    594.28     0  01:34      0.76    1.03    1.00
  YS02001898YS02001901 CONDUIT    593.88     0  01:34      0.76    0.38    1.00
  YS02001901YS02001904 CONDUIT    593.99     0  01:34      0.76    0.92    1.00
  YS02001904YS02001907 CONDUIT    593.25     0  01:34      0.76    0.21    1.00
  YS02001907YS02006553 CONDUIT    792.71     0  02:05      0.88    0.93    1.00
  YS02001910YS02001907 CONDUIT   1725.50     0  01:40      2.20    0.97    1.00
  YS02001915YS02001910 CONDUIT   1725.30     0  01:40      2.20    0.86    1.00
  YS02001918YS02001915 CONDUIT    728.15     0  01:34      0.93    0.40    1.00
  YS02001920YS02001918 CONDUIT    727.50     0  01:35      0.93    0.70    1.00
  YS02001923YS02001920 CONDUIT    745.79     0  01:34      1.02    0.33    1.00
  YS02001926YS02001923 CONDUIT    962.77     0  01:35      1.40    1.37    1.00
  YS02001929YS02001926 CONDUIT    607.87     0  01:35      1.23    0.29    1.00
  YS02006553YS02006556 CONDUIT    792.36     0  02:05      1.01    0.68    1.00
  YS02006556YS02006558 CONDUIT    793.81     0  02:04      1.01    0.63    1.00
  YS02006558YS02006561 CONDUIT   1171.34     0  01:37      4.14    2.59    1.00
  YS02006561YS02001783 CONDUIT   1171.29     0  01:36      2.33    0.61    1.00
  YS02163301YS02001633 CONDUIT    892.38     0  01:34      1.14    0.84    1.00
  YS02163601YS02164001 CONDUIT   1425.88     0  01:34      1.82    1.26    1.00
  YS02164001YS02001641 CONDUIT   1425.20     0  01:34      1.81    1.95    1.00
  CC-R1                PUMP       683.00     0  00:00              1.00
  CC-R2                PUMP       683.00     0  00:00              1.00
  CC-S1                PUMP       200.00     0  00:00              1.00
  CC-S2                PUMP       200.00     0  00:00              1.00
  JK-R1                PUMP      1000.00     0  00:00              1.00
  JK-R2                PUMP      1000.00     0  00:00              1.00
  JK-S                 PUMP       300.00     0  00:00              1.00
  
  
  ***************************
  Flow Classification Summary
  ***************************
  
  -------------------------------------------------------------------------------------
                      Adjusted    ---------- Fraction of Time in Flow Class ---------- 
                       /Actual         Up    Down  Sub   Sup   Up    Down  Norm  Inlet 
  Conduit               Length    Dry  Dry   Dry   Crit  Crit  Crit  Crit  Ltd   Ctrl  
  -------------------------------------------------------------------------------------
  1                       1.00   0.00  0.00  0.00  0.00  1.00  0.00  0.00  0.42  0.00
  WS02003060WS02003069    1.00   0.00  0.00  0.00  0.97  0.03  0.00  0.00  0.63  0.00
  WS02003066WSF200        1.00   0.13  0.00  0.00  0.00  0.87  0.00  0.00  0.73  0.00
  WS02003067WS02003066    1.00   0.10  0.02  0.00  0.88  0.00  0.00  0.00  0.00  0.00
  WS02003069WS02003072    1.00   0.00  0.00  0.00  0.99  0.01  0.00  0.00  0.70  0.00
  WS02003072WS02003073    1.00   0.00  0.00  0.00  0.00  0.00  0.00  1.00  0.00  0.00
  WS02004401WS02004402    1.00   0.02  0.00  0.00  0.98  0.00  0.00  0.00  0.00  0.00
  WS02004402WS02004403    1.00   0.02  0.00  0.00  0.97  0.00  0.00  0.00  0.00  0.00
  WS02004403WS02004404    1.00   0.00  0.03  0.00  0.97  0.00  0.00  0.00  0.00  0.00
  WS02004404WS02004405    1.00   0.00  0.00  0.00  1.00  0.00  0.00  0.00  0.01  0.00
  WS02004405WS02004406    1.00   0.00  0.00  0.00  1.00  0.00  0.00  0.00  0.00  0.00
  WS02004406WS02004407    1.00   0.00  0.05  0.00  0.95  0.00  0.00  0.00  0.00  0.00
  WS02004407WS02004409    1.00   0.05  0.00  0.00  0.94  0.01  0.00  0.00  0.94  0.00
  WS02004409WS02004410    1.00   0.05  0.00  0.00  0.95  0.00  0.00  0.00  0.03  0.00
  WS02004410WS02004411    1.00   0.05  0.00  0.00  0.95  0.00  0.00  0.00  0.01  0.00
  WS02004411WS02004412    1.00   0.05  0.00  0.00  0.95  0.00  0.00  0.00  0.00  0.00
  WS02004412WS02004413    1.00   0.05  0.00  0.00  0.94  0.00  0.00  0.00  0.01  0.00
  WS02004413WS02003067    1.00   0.06  0.04  0.00  0.00  0.00  0.90  0.00  0.00  0.00
  WS02006109WS02006110    1.00   0.00  0.01  0.00  0.98  0.00  0.01  0.00  0.00  0.00
  WS02006110WS02006113    1.00   0.01  0.01  0.00  0.98  0.00  0.00  0.00  0.00  0.00
  WS02006111WS02006112    1.00   0.02  0.00  0.00  0.98  0.00  0.00  0.00  0.98  0.00
  WS02006112WS02006115    1.00   0.02  0.00  0.00  0.97  0.00  0.00  0.00  0.00  0.00
  WS02006113WS02006111    1.00   0.02  0.00  0.00  0.00  0.98  0.00  0.00  0.16  0.00
  WS02006115WS02006116    1.00   0.02  0.00  0.00  0.97  0.00  0.00  0.01  0.00  0.00
  WS02006116WS02004401    1.00   0.02  0.00  0.00  0.98  0.00  0.00  0.00  0.00  0.00
  WS02006228WS02006109    1.00   0.00  0.00  0.00  1.00  0.00  0.00  0.00  0.01  0.00
  WS02006229WS02006228    1.00   0.00  0.00  0.00  0.99  0.00  0.00  0.01  0.00  0.00
  WS02006230WS02006229    1.00   0.00  0.00  0.00  0.99  0.00  0.00  0.01  0.01  0.00
  WS02006231WS02006230    1.00   0.00  0.00  0.00  0.30  0.00  0.70  0.00  0.00  0.00
  WS02006232WS02006231    1.00   0.00  0.00  0.00  0.98  0.00  0.01  0.00  0.00  0.00
  WS02006234WS02006232    1.00   0.00  0.00  0.00  1.00  0.00  0.00  0.00  0.07  0.00
  WS02006235WS02006234    1.00   0.00  0.00  0.00  0.90  0.00  0.10  0.00  0.00  0.00
  WS02006238WS02006235    1.00   0.00  0.00  0.00  1.00  0.00  0.00  0.00  0.00  0.00
  WS02006239WS02006238    1.00   0.00  0.00  0.00  1.00  0.00  0.00  0.00  0.19  0.00
  WS02006240WS02006239    1.00   0.00  0.00  0.00  0.70  0.00  0.00  0.30  0.03  0.00
  WS02006242WS02006240    1.00   0.00  0.00  0.00  0.98  0.00  0.01  0.00  0.00  0.00
  WS02006243WS02006242    1.00   0.00  0.00  0.00  0.98  0.00  0.00  0.01  0.46  0.00
  WS02006245WS02006243    1.00   0.00  0.00  0.00  0.83  0.00  0.00  0.16  0.01  0.00
  WS02006247WS02006245    1.00   0.00  0.00  0.00  0.97  0.00  0.00  0.02  0.00  0.00
  WS02006248WS02006247    1.00   0.00  0.00  0.00  0.98  0.00  0.00  0.02  0.38  0.00
  WS02006249WS02006248    1.00   0.00  0.00  0.00  0.53  0.00  0.47  0.00  0.00  0.00
  WS02006251WS02006249    1.00   0.00  0.00  0.00  0.99  0.01  0.00  0.00  0.48  0.00
  WS02006252WS02006251    1.00   0.00  0.49  0.00  0.16  0.00  0.35  0.00  0.00  0.00
  WS02006256WS02006235    1.00   0.00  0.00  0.00  0.99  0.01  0.00  0.00  0.00  0.00
  WSF200WS02003060        1.00   0.00  0.13  0.00  0.22  0.65  0.00  0.00  0.46  0.00
  YS02001580YS02001583    1.00   0.19  0.58  0.00  0.23  0.00  0.00  0.00  0.67  0.00
  YS02001583YS02001586    1.00   0.41  0.30  0.00  0.29  0.00  0.00  0.00  0.67  0.00
  YS02001586YS02001590    1.00   0.13  0.00  0.00  0.44  0.04  0.00  0.40  0.33  0.00
  YS02001590YS02001593    1.00   0.13  0.01  0.00  0.16  0.00  0.71  0.00  0.00  0.00
  YS02001593YS02001596    1.00   0.13  0.00  0.00  0.18  0.01  0.00  0.68  0.02  0.00
  YS02001596YS02001600    1.00   0.13  0.00  0.00  0.23  0.01  0.00  0.63  0.03  0.00
  YS02001600YS02001601    1.00   0.13  0.01  0.00  0.86  0.00  0.00  0.00  0.59  0.00
  YS02001601YS02001602    1.00   0.13  0.01  0.00  0.87  0.00  0.00  0.00  0.00  0.00
  YS02001602YS02001605    1.00   0.13  0.00  0.00  0.87  0.00  0.00  0.00  0.00  0.00
  YS02001605YS02001607    1.00   0.13  0.00  0.00  0.87  0.00  0.00  0.00  0.00  0.00
  YS02001607YS02001610    1.00   0.13  0.01  0.00  0.86  0.00  0.00  0.00  0.01  0.00
  YS02001610YS02001613    1.00   0.13  0.00  0.00  0.87  0.00  0.00  0.00  0.00  0.00
  YS02001613YS02001616    1.00   0.13  0.00  0.00  0.87  0.00  0.00  0.00  0.00  0.00
  YS02001616YS02001619    1.00   0.13  0.00  0.00  0.87  0.00  0.00  0.00  0.00  0.00
  YS02001619YS02001622    1.00   0.13  0.00  0.00  0.87  0.00  0.00  0.00  0.28  0.00
  YS02001622YS02001625    1.00   0.13  0.00  0.00  0.87  0.00  0.00  0.00  0.03  0.00
  YS02001625YS02001629    1.00   0.13  0.04  0.00  0.20  0.00  0.63  0.00  0.00  0.00
  YS02001629YS02163301    1.00   0.15  0.01  0.00  0.85  0.00  0.00  0.00  0.00  0.00
  YS02001633YS02163601    1.00   0.00  0.01  0.00  0.99  0.00  0.00  0.00  0.14  0.00
  YS02001641YS02001644    1.00   0.00  0.01  0.00  0.99  0.00  0.00  0.00  0.00  0.00
  YS02001644YS02001647    1.00   0.00  0.16  0.00  0.84  0.00  0.00  0.00  0.00  0.00
  YS02001647YS02001649    1.00   0.00  0.16  0.00  0.60  0.24  0.00  0.00  0.56  0.00
  YS02001649YS02001757    1.00   0.00  0.00  0.00  0.89  0.10  0.00  0.00  0.40  0.00
  YS02001652YS02001649    1.00   0.00  0.00  0.00  0.97  0.03  0.00  0.00  0.71  0.00
  YS02001655YS02001652    1.00   0.00  0.00  0.00  0.23  0.01  0.00  0.76  0.04  0.00
  YS02001658YS02001655    1.00   0.00  0.14  0.00  0.71  0.15  0.00  0.00  0.65  0.00
  YS02001661YS02001658    1.00   0.14  0.00  0.00  0.55  0.31  0.00  0.00  0.69  0.00
  YS02001664YS02001661    1.00   0.13  0.00  0.00  0.78  0.10  0.00  0.00  0.84  0.00
  YS02001745YS02001748    1.00   0.00  0.00  0.00  0.15  0.01  0.00  0.84  0.05  0.00
  YS02001748YS02001751    1.00   0.00  0.00  0.00  0.87  0.13  0.00  0.00  0.76  0.00
  YS02001751YS02001754    1.00   0.00  0.00  0.00  0.22  0.00  0.00  0.77  0.03  0.00
  YS02001754YS02001757    1.00   0.00  0.00  0.00  1.00  0.00  0.00  0.00  0.76  0.00
  YS02001757CaochengTiaoxuchi    1.00   0.00  0.00  0.00  0.99  0.01  0.00  0.00  0.60  0.00
  YS02001759YS02001757    1.00   0.00  0.00  0.00  0.99  0.01  0.00  0.00  0.52  0.00
  YS02001762YS02001759    1.00   0.00  0.00  0.00  1.00  0.00  0.00  0.00  0.04  0.00
  YS02001765YS02001762    1.00   0.00  0.00  0.00  1.00  0.00  0.00  0.00  0.65  0.00
  YS02001767YS02001765    1.00   0.00  0.00  0.00  1.00  0.00  0.00  0.00  0.00  0.00
  YS02001770YS02001767    1.00   0.00  0.00  0.00  1.00  0.00  0.00  0.00  0.00  0.00
  YS02001774YS02001770    1.00   0.00  0.13  0.00  0.70  0.00  0.16  0.00  0.02  0.00
  YS02001779YS02001774    1.00   0.00  0.00  0.00  1.00  0.00  0.00  0.00  0.74  0.00
  YS02001783YS02001784    1.00   0.00  0.17  0.00  0.83  0.00  0.00  0.00  0.55  0.00
  YS02001784YS02001785    1.00   0.00  0.00  0.00  1.00  0.00  0.00  0.00  0.15  0.00
  YS02001786YS02001788    1.00   0.00  0.00  0.00  0.79  0.21  0.00  0.00  0.00  0.00
  YS02001788YS02001790    1.00   0.00  0.00  0.00  0.21  0.79  0.00  0.00  0.78  0.00
  YS02001790YS02001791    1.00   0.00  0.00  0.00  0.01  0.99  0.00  0.00  0.17  0.00
  YS02001791YS02001793    1.00   0.00  0.00  0.00  0.00  1.00  0.00  0.00  0.01  0.00
  YS02001793JiankangQianchi    1.00   0.00  0.00  0.00  0.98  0.01  0.00  0.00  0.93  0.00
  YS02001882YS02001884    1.00   0.15  0.01  0.00  0.85  0.00  0.00  0.00  0.00  0.00
  YS02001884YS02001887    1.00   0.06  0.05  0.00  0.89  0.00  0.00  0.00  0.00  0.00
  YS02001887YS02001890    1.00   0.00  0.00  0.00  0.97  0.00  0.03  0.00  0.00  0.00
  YS02001890YS02001895    1.00   0.00  0.15  0.00  0.85  0.00  0.00  0.00  0.00  0.00
  YS02001895YS02001898    1.00   0.15  0.00  0.00  0.83  0.00  0.01  0.00  0.00  0.00
  YS02001898YS02001901    1.00   0.16  0.00  0.00  0.84  0.00  0.00  0.00  0.01  0.00
  YS02001901YS02001904    1.00   0.16  0.00  0.00  0.84  0.00  0.00  0.00  0.00  0.00
  YS02001904YS02001907    1.00   0.00  0.15  0.00  0.84  0.00  0.00  0.00  0.00  0.00
  YS02001907YS02006553    1.00   0.00  0.02  0.00  0.98  0.00  0.00  0.00  0.00  0.00
  YS02001910YS02001907    1.00   0.00  0.00  0.00  0.97  0.00  0.00  0.03  0.12  0.00
  YS02001915YS02001910    1.00   0.00  0.00  0.00  0.97  0.03  0.00  0.00  0.13  0.00
  YS02001918YS02001915    1.00   0.00  0.01  0.00  0.98  0.02  0.00  0.00  0.72  0.00
  YS02001920YS02001918    1.00   0.00  0.01  0.00  0.99  0.00  0.00  0.00  0.00  0.00
  YS02001923YS02001920    1.00   0.00  0.00  0.00  1.00  0.00  0.00  0.00  0.90  0.00
  YS02001926YS02001923    1.00   0.00  0.07  0.00  0.08  0.00  0.85  0.00  0.00  0.00
  YS02001929YS02001926    1.00   0.00  0.13  0.00  0.87  0.00  0.00  0.00  0.80  0.00
  YS02006553YS02006556    1.00   0.01  0.00  0.00  0.99  0.00  0.00  0.00  0.03  0.00
  YS02006556YS02006558    1.00   0.00  0.00  0.00  1.00  0.00  0.00  0.00  0.00  0.00
  YS02006558YS02006561    1.00   0.16  0.00  0.00  0.08  0.76  0.00  0.00  0.18  0.00
  YS02006561YS02001783    1.00   0.16  0.00  0.00  0.11  0.73  0.00  0.00  0.67  0.00
  YS02163301YS02001633    1.00   0.00  0.15  0.00  0.85  0.00  0.00  0.00  0.00  0.00
  YS02163601YS02164001    1.00   0.00  0.08  0.00  0.92  0.00  0.00  0.00  0.00  0.00
  YS02164001YS02001641    1.00   0.01  0.07  0.00  0.92  0.00  0.00  0.00  0.05  0.00
  
  
  *************************
  Conduit Surcharge Summary
  *************************
  
  ----------------------------------------------------------------------------
                                                           Hours        Hours 
                         --------- Hours Full --------   Above Full   Capacity
  Conduit                Both Ends  Upstream  Dnstream   Normal Flow   Limited
  ----------------------------------------------------------------------------
  WS02003072WS02003073        0.01      0.01      0.01      1.64         0.01
  WS02004403WS02004404        0.01      0.01      0.02      0.01         0.01
  WS02004404WS02004405        0.01      0.02      0.01      3.96         0.01
  WS02004405WS02004406        0.01      0.01      0.01      0.94         0.01
  WS02006109WS02006110        0.98      0.98      2.30      1.14         0.01
  WS02006110WS02006113        0.01      0.01      2.29      0.01         0.01
  WS02006111WS02006112        0.01      0.01      2.52      0.01         0.01
  WS02006112WS02006115        0.01      0.01      1.26      0.01         0.01
  WS02006228WS02006109        2.27      2.31      2.27      2.80         2.27
  WS02006229WS02006228        2.26      2.28      2.26      2.44         2.24
  WS02006230WS02006229        2.35      2.43      2.35      4.49         2.35
  WS02006231WS02006230        0.99      0.99      1.24      4.19         0.01
  WS02006232WS02006231        1.17      1.17      2.30      1.26         0.01
  WS02006234WS02006232        2.20      2.20      2.30      1.24         1.22
  WS02006235WS02006234        1.52      1.54      2.22      3.97         0.02
  WS02006238WS02006235        2.25      2.25      2.31      0.01         0.01
  WS02006239WS02006238        2.28      2.30      2.28      2.32         2.04
  WS02006240WS02006239        2.22      2.25      2.23      2.35         1.90
  WS02006242WS02006240        2.25      2.25      2.28      2.50         0.01
  WS02006243WS02006242        2.25      2.25      2.27      0.01         0.06
  WS02006245WS02006243        2.24      2.24      2.24      1.35         1.27
  WS02006247WS02006245        2.24      2.25      2.24      3.74         2.22
  WS02006248WS02006247        2.24      2.24      2.24      0.01         0.06
  WS02006249WS02006248        2.23      2.23      2.23      3.70         0.01
  WS02006251WS02006249        2.23      2.23      2.23      2.49         2.15
  WS02006252WS02006251        2.56      2.56      2.57      2.56         0.01
  WS02006256WS02006235        4.02      4.08      6.62      1.56         0.01
  YS02001580YS02001583        0.83      0.83      0.90      0.01         0.01
  YS02001583YS02001586        0.83      0.83      1.02      0.01         0.01
  YS02001586YS02001590        1.03      1.03      1.11      0.01         0.01
  YS02001590YS02001593        1.11      1.11      1.13      1.18         0.01
  YS02001593YS02001596        1.12      1.12      1.24      0.01         0.01
  YS02001596YS02001600        1.29      1.29      1.41      0.01         0.01
  YS02001600YS02001601        1.49      1.49      1.70      0.01         0.01
  YS02001601YS02001602        1.63      1.63      1.73      1.39         0.01
  YS02001602YS02001605        1.60      1.60      1.63      2.37         0.01
  YS02001605YS02001607        1.57      1.60      1.57      1.68         1.57
  YS02001607YS02001610        1.12      1.12      1.15      0.01         0.01
  YS02001610YS02001613        1.12      1.12      1.15      0.01         0.01
  YS02001613YS02001616        1.07      1.07      1.12      0.01         0.01
  YS02001616YS02001619        1.06      1.06      1.07      0.01         0.08
  YS02001619YS02001622        1.06      1.06      1.06      1.06         0.95
  YS02001622YS02001625        1.06      1.06      1.26      0.01         0.01
  YS02001625YS02001629        1.00      1.00      1.26      0.01         0.01
  YS02001629YS02163301        1.27      1.27      1.28      0.02         0.09
  YS02001633YS02163601        1.30      1.30      1.34      0.26         0.27
  YS02001641YS02001644        1.24      1.26      1.24      1.75         1.21
  YS02001644YS02001647        1.02      1.02      1.24      0.03         0.01
  YS02001647YS02001649        1.02      1.02      1.19      0.01         0.01
  YS02001649YS02001757        1.19      1.19      1.27      0.04         0.03
  YS02001652YS02001649        0.98      0.98      1.19      0.01         0.01
  YS02001655YS02001652        0.72      0.72      0.95      0.01         0.01
  YS02001658YS02001655        0.36      0.36      0.72      0.01         0.01
  YS02001661YS02001658        0.11      0.11      0.36      0.01         0.01
  YS02001664YS02001661        0.01      0.01      0.15      0.01         0.01
  YS02001745YS02001748        0.01      0.01      0.26      0.01         0.01
  YS02001748YS02001751        0.31      0.31      0.52      0.01         0.01
  YS02001751YS02001754        0.52      0.52      0.84      0.01         0.01
  YS02001754YS02001757        0.91      0.91      1.27      0.01         0.01
  YS02001757CaochengTiaoxuchi        1.23      1.27      2.24      0.44         0.38
  YS02001759YS02001757        1.17      1.17      1.27      0.07         0.06
  YS02001762YS02001759        1.12      1.12      1.17      0.01         0.02
  YS02001765YS02001762        1.08      1.08      1.12      0.01         0.01
  YS02001767YS02001765        1.03      1.03      1.08      0.01         0.02
  YS02001770YS02001767        1.03      1.03      1.03      0.69         0.66
  YS02001774YS02001770        1.00      1.00      1.11      0.01         0.01
  YS02001779YS02001774        0.82      0.82      1.11      0.01         0.01
  YS02001783YS02001784        0.67      0.70      0.67      0.85         0.67
  YS02001784YS02001785        0.56      0.67      0.56      1.15         0.56
  YS02001786YS02001788        0.01      0.56      0.01      0.98         0.01
  YS02001790YS02001791        0.01      0.01      0.01      0.66         0.01
  YS02001793JiankangQianchi        0.01      0.01      7.47      0.01         0.01
  YS02001882YS02001884        0.63      0.63      0.65      0.01         0.01
  YS02001884YS02001887        0.67      0.67      0.69      0.01         0.01
  YS02001887YS02001890        0.70      0.70      0.71      0.19         0.01
  YS02001890YS02001895        0.62      0.62      0.73      0.01         0.01
  YS02001895YS02001898        0.62      0.62      0.62      0.01         0.01
  YS02001898YS02001901        0.63      0.63      0.67      0.01         0.01
  YS02001901YS02001904        0.66      0.66      0.67      0.01         0.01
  YS02001904YS02001907        0.66      0.66      0.94      0.01         0.01
  YS02001907YS02006553        1.17      1.17      1.26      0.01         0.01
  YS02001910YS02001907        0.73      0.73      0.91      0.01         0.01
  YS02001915YS02001910        0.64      0.64      0.73      0.01         0.01
  YS02001918YS02001915        0.54      0.54      0.64      0.01         0.01
  YS02001920YS02001918        0.54      0.54      0.56      0.01         0.01
  YS02001923YS02001920        0.50      0.50      0.56      0.01         0.01
  YS02001926YS02001923        0.20      0.20      0.23      0.01         0.01
  YS02001929YS02001926        0.03      0.03      0.23      0.01         0.01
  YS02006553YS02006556        0.82      0.82      0.95      0.01         0.01
  YS02006556YS02006558        0.87      0.87      0.97      0.01         0.01
  YS02006558YS02006561        0.58      0.81      0.58      1.09         0.58
  YS02006561YS02001783        0.51      0.51      0.70      0.01         0.01
  YS02163301YS02001633        1.28      1.28      1.32      0.01         0.01
  YS02163601YS02164001        1.26      1.26      1.34      0.03         0.01
  YS02164001YS02001641        1.26      1.26      1.26      0.83         0.79
  
  
  ***************
  Pumping Summary
  ***************
  
  ---------------------------------------------------------------------------------------------------------
                                                  Min       Avg       Max     Total     Power    % Time Off
                        Percent   Number of      Flow      Flow      Flow    Volume     Usage    Pump Curve
  Pump                 Utilized   Start-Ups       LPS       LPS       LPS  10^6 ltr     Kw-hr    Low   High
  ---------------------------------------------------------------------------------------------------------
  CC-R1                   24.05           5      0.00    683.00    683.00     4.731     90.05    0.0    9.4
  CC-R2                   19.93           8      0.00    683.00    683.00     3.920     74.81    0.0   16.2
  CC-S1                   46.29           8      0.00    200.00    200.00     2.666     14.97    0.0    0.0
  CC-S2                   33.09           9      0.00    200.00    200.00     1.906     10.43    0.0    0.0
  JK-R1                    9.76          15      0.00   1000.00   1000.00     2.810     32.84    0.0    0.0
  JK-R2                    1.61           3      0.00   1000.00   1000.00     0.464      3.68    0.0    0.0
  JK-S                    19.25          28      0.00    300.00    300.00     1.663     22.32    0.0    0.0
  

  Analysis begun on:  Mon Feb 24 09:49:56 2025
  Analysis ended on:  Mon Feb 24 09:49:58 2025
  Total elapsed time: 00:00:02