
  EPA STORM WATER MANAGEMENT MODEL - VERSION 5.2 (Build 5.2.4)
  PYSWMM TOOLKIT API - VERSION v1.0 (2023-11-27)
  ------------------------------------------------------------

  WARNING 04: minimum elevation drop used for Conduit WS02004404WS02004405
  WARNING 03: negative offset ignored for Link YS02001904YS02001907
  
  ****************
  Analysis Options
  ****************
  Flow Units ............... LPS
  Process Models:
    Rainfall/Runoff ........ YES
    RDII ................... NO
    Snowmelt ............... NO
    Groundwater ............ NO
    Flow Routing ........... YES
    Ponding Allowed ........ NO
    Water Quality .......... NO
  Infiltration Method ...... HORTON
  Flow Routing Method ...... DYNWAVE
  Surcharge Method ......... EXTRAN
  Starting Date ............ 08/28/2015 08:00:00
  Ending Date .............. 08/28/2015 16:00:00
  Antecedent Dry Days ...... 8.0
  Report Time Step ......... 00:01:00
  Wet Time Step ............ 00:01:00
  Dry Time Step ............ 00:01:00
  Routing Time Step ........ 30.00 sec
  Variable Time Step ....... YES
  Maximum Trials ........... 8
  Number of Threads ........ 4
  Head Tolerance ........... 0.001500 m
  
  
  **************************        Volume         Depth
  Runoff Quantity Continuity     hectare-m            mm
  **************************     ---------       -------
  Total Precipitation ......         2.234        67.346
  Evaporation Loss .........         0.000         0.000
  Infiltration Loss ........         0.100         3.002
  Surface Runoff ...........         2.102        63.364
  Final Storage ............         0.033         0.994
  Continuity Error (%) .....        -0.021
  
  
  **************************        Volume        Volume
  Flow Routing Continuity        hectare-m      10^6 ltr
  **************************     ---------     ---------
  Dry Weather Inflow .......         0.025         0.251
  Wet Weather Inflow .......         2.102        21.018
  Groundwater Inflow .......         0.000         0.000
  RDII Inflow ..............         0.000         0.000
  External Inflow ..........         0.083         0.834
  External Outflow .........         1.568        15.679
  Flooding Loss ............         0.709         7.094
  Evaporation Loss .........         0.000         0.000
  Exfiltration Loss ........         0.000         0.000
  Initial Stored Volume ....         0.243         2.431
  Final Stored Volume ......         0.182         1.824
  Continuity Error (%) .....        -0.258
  
  
  *************************
  Highest Continuity Errors
  *************************
  Node YS02001884 (5.03%)
  Node YS02001583 (-4.41%)
  Node WS02006256 (-1.24%)
  
  
  ***************************
  Time-Step Critical Elements
  ***************************
  Link WS02006252WS02006251 (45.83%)
  Link WS02006238WS02006235 (14.05%)
  Link WS02004404WS02004405 (12.85%)
  Link YS02001791YS02001793 (6.44%)
  Link WS02003066WSF200 (6.31%)
  
  
  ********************************
  Highest Flow Instability Indexes
  ********************************
  Link WS02006113WS02006111 (45)
  Link WS02006111WS02006112 (22)
  Link WS02004404WS02004405 (21)
  Link WS02004403WS02004404 (18)
  Link WS02004405WS02004406 (16)
  
  
  *********************************
  Most Frequent Nonconverging Nodes
  *********************************
  Node CC-1 (13.34%)
  Node CC-2 (13.34%)
  Node JK-1 (13.34%)
  Node JK-2 (13.34%)
  Node WSC (13.34%)
  
  
  *************************
  Routing Time Step Summary
  *************************
  Minimum Time Step           :     0.00 sec
  Average Time Step           :     1.94 sec
  Maximum Time Step           :     7.04 sec
  % of Time in Steady State   :     0.00
  Average Iterations per Step :     3.16
  % of Steps Not Converging   :    13.34
  Time Step Frequencies       :
     30.000 - 13.228 sec      :     0.00 %
     13.228 -  5.833 sec      :     6.91 %
      5.833 -  2.572 sec      :    19.17 %
      2.572 -  1.134 sec      :    22.86 %
      1.134 -  0.500 sec      :    51.06 %
  
  
  ***************************
  Subcatchment Runoff Summary
  ***************************
  
  ------------------------------------------------------------------------------------------------------------------------------
                            Total      Total      Total      Total     Imperv       Perv      Total       Total     Peak  Runoff
                           Precip      Runon       Evap      Infil     Runoff     Runoff     Runoff      Runoff   Runoff   Coeff
  Subcatchment                 mm         mm         mm         mm         mm         mm         mm    10^6 ltr      LPS
  ------------------------------------------------------------------------------------------------------------------------------
  sub60                     67.35       0.00       0.00       1.81      58.06       6.28      64.34        0.85   571.03   0.955
  sub61                     67.35       0.00       0.00       2.61      54.77       8.84      63.60        1.17   792.22   0.944
  sub62                     67.35       0.00       0.00       1.20      60.67       4.19      64.86        1.78  1118.48   0.963
  sub63                     67.35       0.00       0.00       4.82      46.85      14.71      61.56        1.40   892.50   0.914
  sub64                     67.35       0.00       0.00       2.44      56.04       7.67      63.71        1.53   909.62   0.946
  sub65                     67.35       0.00       0.00       2.11      57.34       6.65      63.99        1.76  1019.96   0.950
  sub66                     67.35       0.00       0.00       5.98      46.74      13.55      60.29        2.81  1339.32   0.895
  sub67                     67.35       0.00       0.00       1.16      60.72       4.23      64.95        1.21   855.41   0.964
  sub68                     67.35       0.00       0.00       2.17      56.73       7.27      64.00        1.76  1147.02   0.950
  sub69                     67.35       0.00       0.00       1.93      57.13       8.18      65.31        2.42  1357.84   0.970
  sub70                     67.35       0.00       0.00       6.45      44.29      16.45      60.73        1.75   753.10   0.902
  sub71                     67.35       0.00       0.00       1.23      60.63       4.16      64.79        1.69   986.01   0.962
  sub72                     67.35       0.00       0.00       1.10      61.23       3.62      64.85        0.89   478.94   0.963
  
  
  ******************
  Node Depth Summary
  ******************
  
  ---------------------------------------------------------------------------------
                                 Average  Maximum  Maximum  Time of Max    Reported
                                   Depth    Depth      HGL   Occurrence   Max Depth
  Node                 Type       Meters   Meters   Meters  days hr:min      Meters
  ---------------------------------------------------------------------------------
  WS02003060           JUNCTION     0.24     0.39     5.32     0  02:27        0.38
  WS02003066           JUNCTION     0.20     0.30     5.85     0  02:26        0.30
  WS02003067           JUNCTION     0.50     0.70     6.02     0  02:26        0.70
  WS02003069           JUNCTION     0.26     0.43     5.02     0  02:28        0.43
  WS02003072           JUNCTION     0.33     0.50     4.87     0  02:28        0.50
  WS02003073           JUNCTION     0.19     0.30     4.36     0  02:29        0.30
  WS02004401           JUNCTION     0.60     0.88     6.88     0  02:25        0.88
  WS02004402           JUNCTION     0.63     0.91     6.87     0  02:25        0.91
  WS02004403           JUNCTION     0.65     0.93     6.86     0  02:25        0.92
  WS02004404           JUNCTION     0.73     1.04     6.89     0  02:22        0.99
  WS02004405           JUNCTION     0.71     0.97     6.82     0  02:25        0.97
  WS02004406           JUNCTION     0.73     0.97     6.80     0  02:25        0.96
  WS02004407           JUNCTION     0.18     0.30     6.61     0  02:25        0.30
  WS02004409           JUNCTION     0.39     0.67     6.44     0  02:25        0.67
  WS02004410           JUNCTION     0.42     0.69     6.41     0  02:25        0.68
  WS02004411           JUNCTION     0.44     0.69     6.37     0  02:26        0.69
  WS02004412           JUNCTION     0.46     0.70     6.34     0  02:26        0.70
  WS02004413           JUNCTION     0.62     0.86     6.33     0  02:26        0.86
  WS02006109           JUNCTION     0.64     1.15     7.77     0  02:32        1.00
  WS02006110           JUNCTION     0.65     1.28     7.86     0  02:32        0.95
  WS02006111           JUNCTION     0.17     0.29     6.99     0  03:03        0.29
  WS02006112           JUNCTION     0.75     1.09     6.97     0  03:13        1.08
  WS02006113           JUNCTION     0.27     0.46     7.35     0  03:08        0.46
  WS02006115           JUNCTION     0.48     0.78     6.92     0  02:25        0.77
  WS02006116           JUNCTION     0.56     0.86     6.90     0  02:25        0.86
  WS02006228           JUNCTION     0.63     1.16     7.81     0  02:32        1.10
  WS02006229           JUNCTION     0.60     1.14     7.84     0  03:06        1.13
  WS02006230           JUNCTION     0.60     1.29     8.04     0  02:11        1.26
  WS02006231           JUNCTION     0.42     1.36     8.48     0  02:15        1.01
  WS02006232           JUNCTION     0.55     1.34     8.38     0  02:15        1.19
  WS02006234           JUNCTION     0.47     1.34     8.49     0  02:15        1.18
  WS02006235           JUNCTION     0.51     1.52     8.69     0  02:00        1.25
  WS02006238           JUNCTION     0.54     1.57     8.71     0  02:00        1.28
  WS02006239           JUNCTION     0.50     1.59     8.80     0  02:00        1.27
  WS02006240           JUNCTION     0.47     1.56     8.85     0  02:00        1.25
  WS02006242           JUNCTION     0.54     1.55     8.82     0  02:00        1.33
  WS02006243           JUNCTION     0.44     1.41     8.83     0  02:00        1.22
  WS02006245           JUNCTION     0.45     1.32     8.80     0  02:00        1.19
  WS02006247           JUNCTION     0.47     1.26     8.76     0  02:00        1.18
  WS02006248           JUNCTION     0.43     1.10     8.69     0  02:00        1.10
  WS02006249           JUNCTION     0.47     1.09     8.69     0  01:59        1.09
  WS02006251           JUNCTION     0.47     1.62     9.29     0  01:59        1.13
  WS02006252           JUNCTION     0.34     1.50     9.74     0  00:00        0.69
  WS02006256           JUNCTION     1.02     2.35     9.28     0  00:00        2.35
  WSF200               JUNCTION     0.17     0.29     5.53     0  02:27        0.29
  YS02001580           JUNCTION     0.09     1.05     9.59     0  01:53        0.77
  YS02001583           JUNCTION     0.12     1.14     9.64     0  01:53        0.82
  YS02001586           JUNCTION     0.19     1.13     9.30     0  01:53        1.13
  YS02001590           JUNCTION     0.28     1.40     9.26     0  01:53        1.37
  YS02001593           JUNCTION     0.22     1.43     9.29     0  01:51        1.29
  YS02001596           JUNCTION     0.30     1.68     9.10     0  01:53        1.65
  YS02001600           JUNCTION     0.35     1.87     9.00     0  01:53        1.86
  YS02001601           JUNCTION     0.54     2.06     8.90     0  01:51        2.06
  YS02001602           JUNCTION     0.45     1.87     8.77     0  01:52        1.87
  YS02001605           JUNCTION     0.42     1.78     8.68     0  01:52        1.78
  YS02001607           JUNCTION     0.42     1.68     8.53     0  01:52        1.65
  YS02001610           JUNCTION     0.47     1.68     8.48     0  01:52        1.68
  YS02001613           JUNCTION     0.42     1.67     8.51     0  01:53        1.67
  YS02001616           JUNCTION     0.35     1.61     8.52     0  01:52        1.61
  YS02001619           JUNCTION     0.33     1.61     8.54     0  01:52        1.61
  YS02001622           JUNCTION     0.32     1.62     8.52     0  01:52        1.58
  YS02001625           JUNCTION     0.59     1.78     8.38     0  01:53        1.78
  YS02001629           JUNCTION     0.44     1.85     8.40     0  01:53        1.85
  YS02001633           JUNCTION     0.52     2.03     8.48     0  02:00        2.03
  YS02001641           JUNCTION     0.50     1.95     8.39     0  01:57        1.95
  YS02001644           JUNCTION     0.50     1.92     8.35     0  01:57        1.92
  YS02001647           JUNCTION     0.29     1.78     8.39     0  01:58        1.73
  YS02001649           JUNCTION     0.33     2.01     8.40     0  01:58        1.95
  YS02001652           JUNCTION     0.23     1.89     8.49     0  01:58        1.79
  YS02001655           JUNCTION     0.18     1.81     8.66     0  01:57        1.57
  YS02001658           JUNCTION     0.13     1.76     8.90     0  01:57        1.32
  YS02001661           JUNCTION     0.15     1.68     9.08     0  01:58        1.11
  YS02001664           JUNCTION     0.05     0.59     8.52     0  01:58        0.56
  YS02001745           JUNCTION     0.07     0.83     8.34     0  02:00        0.81
  YS02001748           JUNCTION     0.12     1.76     8.84     0  01:58        1.24
  YS02001751           JUNCTION     0.15     1.74     8.61     0  01:58        1.43
  YS02001754           JUNCTION     0.21     1.78     8.39     0  01:58        1.68
  YS02001757           JUNCTION     0.36     2.02     8.28     0  01:58        2.01
  YS02001759           JUNCTION     0.30     2.01     8.38     0  02:01        2.01
  YS02001762           JUNCTION     0.29     1.99     8.39     0  02:01        1.99
  YS02001765           JUNCTION     0.27     1.95     8.40     0  02:00        1.94
  YS02001767           JUNCTION     0.27     1.92     8.41     0  02:00        1.92
  YS02001770           JUNCTION     0.28     1.95     8.44     0  02:01        1.95
  YS02001774           JUNCTION     0.35     2.00     8.42     0  02:01        2.00
  YS02001779           JUNCTION     0.19     1.68     8.37     0  01:56        1.68
  YS02001783           JUNCTION     0.22     1.33     7.47     0  01:56        1.22
  YS02001784           JUNCTION     0.24     1.17     7.24     0  01:56        1.13
  YS02001786           JUNCTION     0.20     0.92     6.95     0  01:56        0.88
  YS02001788           JUNCTION     0.14     0.63     6.60     0  02:01        0.63
  YS02001790           JUNCTION     0.17     0.73     6.37     0  02:01        0.71
  YS02001791           JUNCTION     0.11     0.44     5.91     0  02:00        0.44
  YS02001793           JUNCTION     0.06     0.29     5.12     0  02:01        0.28
  YS02001882           JUNCTION     0.29     1.83     8.55     0  01:54        1.83
  YS02001884           JUNCTION     0.38     1.93     8.54     0  01:54        1.86
  YS02001887           JUNCTION     0.46     1.93     8.47     0  01:54        1.86
  YS02001890           JUNCTION     0.49     1.81     8.32     0  01:54        1.81
  YS02001895           JUNCTION     0.26     1.57     8.31     0  02:00        1.56
  YS02001898           JUNCTION     0.27     1.56     8.30     0  02:00        1.56
  YS02001901           JUNCTION     0.38     1.68     8.29     0  02:00        1.67
  YS02001904           JUNCTION     0.36     1.64     8.27     0  01:56        1.64
  YS02001907           JUNCTION     0.69     1.96     8.25     0  01:56        1.96
  YS02001910           JUNCTION     0.48     1.97     8.47     0  01:57        1.94
  YS02001915           JUNCTION     0.29     1.98     8.70     0  01:55        1.88
  YS02001918           JUNCTION     0.16     1.81     8.88     0  01:57        1.58
  YS02001920           JUNCTION     0.23     2.14     9.15     0  01:57        1.63
  YS02001923           JUNCTION     0.12     2.03     9.29     0  01:57        1.32
  YS02001926           JUNCTION     0.15     1.90     9.35     0  01:57        1.14
  YS02001929           JUNCTION     0.08     1.78     9.47     0  01:57        0.89
  YS02006553           JUNCTION     0.69     1.98     8.26     0  01:59        1.98
  YS02006556           JUNCTION     0.66     1.96     8.27     0  01:59        1.96
  YS02006558           JUNCTION     0.70     2.02     8.28     0  01:59        2.02
  YS02006561           JUNCTION     0.14     1.05     7.71     0  01:56        0.90
  YS02163301           JUNCTION     0.46     1.93     8.44     0  02:00        1.93
  YS02163601           JUNCTION     0.56     2.04     8.43     0  01:57        2.03
  YS02164001           JUNCTION     0.49     1.96     8.41     0  01:57        1.95
  CC-1                 OUTFALL      0.00     0.00     0.00     0  00:00        0.00
  CC-2                 OUTFALL      0.00     0.00     0.00     0  00:00        0.00
  JK-1                 OUTFALL      0.00     0.00     0.00     0  00:00        0.00
  JK-2                 OUTFALL      0.00     0.00     0.00     0  00:00        0.00
  WSC                  OUTFALL      0.19     0.30     0.97     0  02:29        0.30
  CC-storage           STORAGE      0.93     1.75     7.25     0  02:30        1.75
  JK-storage           STORAGE      2.81     4.23     5.03     0  02:05        4.20
  
  
  *******************
  Node Inflow Summary
  *******************
  
  -------------------------------------------------------------------------------------------------
                                  Maximum  Maximum                  Lateral       Total        Flow
                                  Lateral    Total  Time of Max      Inflow      Inflow     Balance
                                   Inflow   Inflow   Occurrence      Volume      Volume       Error
  Node                 Type           LPS      LPS  days hr:min    10^6 ltr    10^6 ltr     Percent
  -------------------------------------------------------------------------------------------------
  WS02003060           JUNCTION     16.53   559.79     0  02:27       0.476        5.62       0.041
  WS02003066           JUNCTION      0.00   542.49     0  02:26           0        5.15       0.027
  WS02003067           JUNCTION      0.00   542.28     0  02:26           0        5.15       0.082
  WS02003069           JUNCTION      0.32   559.54     0  02:27     0.00922        5.63       0.071
  WS02003072           JUNCTION      0.00   558.50     0  02:28           0        5.62       0.126
  WS02003073           JUNCTION      1.82   559.76     0  02:28      0.0524        5.67       0.103
  WS02004401           JUNCTION      0.00   555.70     0  02:25           0        5.25       0.198
  WS02004402           JUNCTION      0.00   565.02     0  02:25           0        5.24       0.201
  WS02004403           JUNCTION      0.00   569.20     0  02:25           0        5.23       0.194
  WS02004404           JUNCTION      0.16   575.75     0  02:24     0.00467        5.22       0.166
  WS02004405           JUNCTION      0.04   613.91     0  02:24      0.0011        5.21       0.151
  WS02004406           JUNCTION      0.00   563.67     0  02:25           0        5.21       0.403
  WS02004407           JUNCTION      0.00   551.26     0  02:25           0        5.18       0.025
  WS02004409           JUNCTION      0.00   548.18     0  02:25           0        5.18       0.055
  WS02004410           JUNCTION      0.00   545.46     0  02:25           0        5.18       0.087
  WS02004411           JUNCTION      0.00   544.34     0  02:25           0        5.18       0.110
  WS02004412           JUNCTION      0.00   543.56     0  02:26           0        5.17       0.146
  WS02004413           JUNCTION      0.00   543.22     0  02:26           0        5.16       0.258
  WS02006109           JUNCTION      1.23   553.90     0  02:11      0.0354         5.3       0.125
  WS02006110           JUNCTION      0.00   555.34     0  02:11           0        5.29       0.140
  WS02006111           JUNCTION      0.00   563.13     0  03:01           0        5.28       0.018
  WS02006112           JUNCTION      0.00   543.46     0  03:03           0        5.28       0.334
  WS02006113           JUNCTION      0.00   569.02     0  02:32           0        5.28       0.043
  WS02006115           JUNCTION      0.00   556.25     0  03:30           0        5.26       0.129
  WS02006116           JUNCTION      0.00   551.68     0  02:25           0        5.25       0.115
  WS02006228           JUNCTION      0.00   552.29     0  02:11           0        5.26       0.052
  WS02006229           JUNCTION      0.00   551.98     0  02:26           0        5.27       0.126
  WS02006230           JUNCTION     10.28   590.90     0  02:00       0.296        5.27       0.056
  WS02006231           JUNCTION      0.00   577.57     0  02:43           0        4.97      -0.076
  WS02006232           JUNCTION      0.00   576.73     0  02:43           0        4.99       0.331
  WS02006234           JUNCTION      0.00   573.44     0  03:06           0        4.97      -0.294
  WS02006235           JUNCTION      0.00   567.65     0  03:06           0        5.07       0.306
  WS02006238           JUNCTION      0.00   425.78     0  02:35           0        4.03      -0.164
  WS02006239           JUNCTION      0.00   424.36     0  02:50           0        3.97      -0.122
  WS02006240           JUNCTION      0.00   421.16     0  02:50           0        3.93      -0.030
  WS02006242           JUNCTION      0.00   420.52     0  02:50           0        3.91       0.051
  WS02006243           JUNCTION      0.00   421.16     0  02:35           0        3.89      -0.041
  WS02006245           JUNCTION      0.00   421.73     0  02:35           0        3.91       0.406
  WS02006247           JUNCTION      0.00   422.25     0  02:35           0        3.91       0.011
  WS02006248           JUNCTION      0.00   422.97     0  02:35           0        3.91       0.119
  WS02006249           JUNCTION      0.00   459.02     0  00:00           0        4.17       0.385
  WS02006251           JUNCTION      0.08   414.05     0  01:59     0.00222        4.17      -0.029
  WS02006252           JUNCTION      0.00   400.00     0  00:00           0        4.16      -0.116
  WS02006256           JUNCTION      0.00   300.00     0  00:00           0        1.56      -1.226
  WSF200               JUNCTION      0.00   542.67     0  02:27           0        5.14       0.009
  YS02001580           JUNCTION      0.00   140.38     0  01:53           0     0.00438       0.547
  YS02001583           JUNCTION      0.00   167.94     0  01:53           0      0.0155      -4.227
  YS02001586           JUNCTION    753.10   753.10     0  02:04        1.75        1.77       0.069
  YS02001590           JUNCTION      0.00   317.97     0  01:58           0        1.36      -0.027
  YS02001593           JUNCTION      0.00   318.01     0  02:00           0        1.36      -0.002
  YS02001596           JUNCTION      0.00   318.01     0  01:57           0        1.36      -0.012
  YS02001600           JUNCTION      0.00   317.98     0  01:58           0        1.36       0.010
  YS02001601           JUNCTION   1357.84  1675.31     0  02:03        2.42        3.77       0.021
  YS02001602           JUNCTION      0.00   520.76     0  01:52           0        2.28       0.021
  YS02001605           JUNCTION      0.00   520.81     0  01:52           0        2.15       0.030
  YS02001607           JUNCTION      0.00   520.94     0  01:52           0        2.15       0.094
  YS02001610           JUNCTION      0.00   739.55     0  02:04           0         2.4       0.100
  YS02001613           JUNCTION      0.00   533.17     0  01:52           0         1.9       0.096
  YS02001616           JUNCTION      0.00   528.86     0  01:52           0         1.9       0.021
  YS02001619           JUNCTION   1339.32  1339.32     0  02:04        2.81        4.46       0.003
  YS02001622           JUNCTION      0.00   952.24     0  02:02           0        4.21      -0.000
  YS02001625           JUNCTION      0.00  1354.47     0  02:04           0        4.44       0.208
  YS02001629           JUNCTION      0.00   928.07     0  01:53           0        3.39       0.021
  YS02001633           JUNCTION   1020.16  1362.71     0  01:55        1.77        4.88       0.073
  YS02001641           JUNCTION      0.00  1365.51     0  01:55           0        4.62       0.058
  YS02001644           JUNCTION    909.66  1767.95     0  01:55        1.53        6.14       0.055
  YS02001647           JUNCTION      0.00  1767.27     0  01:55           0        5.62       0.007
  YS02001649           JUNCTION      0.00  1981.17     0  01:55           0        7.03       0.004
  YS02001652           JUNCTION      0.00   917.39     0  02:02           0         1.4      -0.080
  YS02001655           JUNCTION      0.15   917.93     0  02:02     0.00443         1.4      -0.015
  YS02001658           JUNCTION      0.00   917.38     0  02:02           0         1.4      -0.037
  YS02001661           JUNCTION      0.00   916.34     0  02:02           0         1.4       0.025
  YS02001664           JUNCTION    892.50   892.50     0  02:02         1.4         1.4      -0.010
  YS02001745           JUNCTION    571.03   571.03     0  02:02       0.846       0.846       0.180
  YS02001748           JUNCTION      0.04   608.16     0  01:58      0.0013       0.846      -0.239
  YS02001751           JUNCTION      0.01   582.97     0  02:02    0.000317       0.854       0.091
  YS02001754           JUNCTION      0.26   582.14     0  02:02     0.00749       0.869      -0.161
  YS02001757           JUNCTION      0.00  3252.59     0  01:58           0        10.6       0.025
  YS02001759           JUNCTION    792.26  1348.44     0  02:01        1.17        2.72      -0.009
  YS02001762           JUNCTION      0.00   709.27     0  01:58           0        1.56      -0.001
  YS02001765           JUNCTION      0.00   712.13     0  01:58           0        1.56       0.005
  YS02001767           JUNCTION      0.54   712.98     0  01:58      0.0154        1.56       0.002
  YS02001770           JUNCTION   1118.64  1118.64     0  02:02        1.78        1.83      -0.017
  YS02001774           JUNCTION      0.00   604.43     0  02:02           0       0.306       0.350
  YS02001779           JUNCTION      0.01   605.17     0  02:02    0.000144        0.26      -0.353
  YS02001783           JUNCTION      0.00  1166.98     0  01:59           0        4.11       0.005
  YS02001784           JUNCTION      1.06  1167.38     0  01:59      0.0305        4.14       0.013
  YS02001786           JUNCTION      0.06  1166.59     0  01:59     0.00162        4.14       0.017
  YS02001788           JUNCTION      0.07  1168.92     0  01:59     0.00204        4.14       0.007
  YS02001790           JUNCTION      0.15  1180.05     0  02:00     0.00446        4.15       0.018
  YS02001791           JUNCTION      0.00  1302.97     0  02:01           0        4.14      -0.023
  YS02001793           JUNCTION      0.00  1257.94     0  02:01           0        4.15       0.003
  YS02001882           JUNCTION      0.00    58.40     0  01:54           0      0.0129       4.736
  YS02001884           JUNCTION      0.00    85.76     0  01:54           0      0.0489       5.302
  YS02001887           JUNCTION    855.86   859.16     0  02:01        1.22        1.25       0.350
  YS02001890           JUNCTION      0.00   860.27     0  02:01           0        1.21       0.415
  YS02001895           JUNCTION      0.00   517.36     0  02:05           0        1.09       0.145
  YS02001898           JUNCTION      0.00   517.77     0  02:05           0        1.09       0.020
  YS02001901           JUNCTION      0.00   517.84     0  02:05           0         1.1       0.291
  YS02001904           JUNCTION      0.00   517.83     0  02:05           0         1.1       0.254
  YS02001907           JUNCTION      0.00  2002.19     0  02:02           0        3.76       0.476
  YS02001910           JUNCTION      0.00  1485.47     0  02:02           0        2.67       0.268
  YS02001915           JUNCTION    986.03  1485.09     0  02:02        1.69        2.71       0.057
  YS02001918           JUNCTION      0.00   499.47     0  02:02           0        1.04       0.007
  YS02001920           JUNCTION      2.87   499.59     0  02:02      0.0827        1.02       0.064
  YS02001923           JUNCTION      0.04   494.95     0  02:02     0.00109       0.926      -0.062
  YS02001926           JUNCTION      0.05   539.82     0  01:56      0.0015       0.906      -0.073
  YS02001929           JUNCTION    478.94   478.94     0  02:03       0.892       0.893      -0.051
  YS02006553           JUNCTION      0.00   798.42     0  02:20           0        2.37       0.507
  YS02006556           JUNCTION      0.00   798.19     0  02:20           0        2.38       0.324
  YS02006558           JUNCTION   1147.90  1173.24     0  01:56        1.79        4.14       0.087
  YS02006561           JUNCTION      0.00  1171.69     0  01:56           0        4.11      -0.002
  YS02163301           JUNCTION      0.00   920.48     0  01:55           0        3.38       0.045
  YS02163601           JUNCTION      0.11  1362.98     0  01:55     0.00317        4.61       0.107
  YS02164001           JUNCTION      0.00  1362.93     0  01:55           0        4.61       0.050
  CC-1                 OUTFALL       0.00   683.00     0  00:00           0        3.97       0.000
  CC-2                 OUTFALL       0.00   683.00     0  00:00           0        3.34       0.000
  JK-1                 OUTFALL       0.00  1000.00     0  00:00           0        2.51       0.000
  JK-2                 OUTFALL       0.00  1000.00     0  00:00           0       0.199       0.000
  WSC                  OUTFALL       0.00   559.20     0  02:29           0        5.66       0.000
  CC-storage           STORAGE       0.00  3254.95     0  01:58           0        12.8      -0.224
  JK-storage           STORAGE       0.00  1219.19     0  02:03           0         4.3      -0.393
  
  
  **********************
  Node Surcharge Summary
  **********************
  
  Surcharging occurs when water rises above the top of the highest conduit.
  ---------------------------------------------------------------------
                                               Max. Height   Min. Depth
                                   Hours       Above Crown    Below Rim
  Node                 Type      Surcharged         Meters       Meters
  ---------------------------------------------------------------------
  WS02004404           JUNCTION        0.03          0.040        2.740
  WS02006109           JUNCTION        1.96          0.333        1.487
  WS02006110           JUNCTION        0.75          0.365        1.485
  WS02006112           JUNCTION        1.05          0.086        1.594
  WS02006228           JUNCTION        1.96          0.333        1.867
  WS02006229           JUNCTION        1.97          0.345        2.105
  WS02006230           JUNCTION        0.77          0.214        1.356
  WS02006231           JUNCTION        0.97          0.650        0.880
  WS02006232           JUNCTION        1.99          0.641        0.839
  WS02006234           JUNCTION        1.38          0.618        0.622
  WS02006235           JUNCTION        1.91          0.813        0.477
  WS02006238           JUNCTION        1.96          0.851        0.579
  WS02006239           JUNCTION        1.94          0.853        0.437
  WS02006240           JUNCTION        1.96          0.845        0.545
  WS02006242           JUNCTION        1.98          0.820        0.000
  WS02006243           JUNCTION        1.96          0.698        0.072
  WS02006245           JUNCTION        1.95          0.609        0.241
  WS02006247           JUNCTION        1.95          0.554        0.206
  WS02006248           JUNCTION        1.94          0.380        0.000
  WS02006249           JUNCTION        1.94          0.390        0.000
  WS02006251           JUNCTION        1.08          0.586        0.594
  WS02006252           JUNCTION        2.26          1.100        0.000
  WS02006256           JUNCTION        6.49          2.050        0.000
  YS02001580           JUNCTION        0.65          0.450        0.000
  YS02001583           JUNCTION        0.66          0.500        0.000
  YS02001586           JUNCTION        0.80          0.510        0.000
  YS02001590           JUNCTION        0.87          0.750        0.000
  YS02001593           JUNCTION        0.87          0.810        0.030
  YS02001596           JUNCTION        0.99          0.953        0.117
  YS02001600           JUNCTION        1.14          1.190        0.000
  YS02001601           JUNCTION        1.46          1.440        0.000
  YS02001602           JUNCTION        1.37          1.270        0.000
  YS02001605           JUNCTION        1.33          1.180        0.000
  YS02001607           JUNCTION        0.87          0.680        0.000
  YS02001610           JUNCTION        0.89          0.680        0.000
  YS02001613           JUNCTION        0.86          0.671        0.029
  YS02001616           JUNCTION        0.82          0.610        0.000
  YS02001619           JUNCTION        0.80          0.610        0.000
  YS02001622           JUNCTION        0.80          0.620        0.000
  YS02001625           JUNCTION        0.99          0.780        0.000
  YS02001629           JUNCTION        0.76          0.470        0.000
  YS02001633           JUNCTION        1.02          1.009        0.051
  YS02001641           JUNCTION        0.97          0.953        0.147
  YS02001644           JUNCTION        0.94          0.920        0.000
  YS02001647           JUNCTION        0.74          0.777        0.123
  YS02001649           JUNCTION        0.87          1.005        0.045
  YS02001652           JUNCTION        0.67          0.862        0.268
  YS02001655           JUNCTION        0.49          0.807        0.393
  YS02001658           JUNCTION        0.26          0.758        0.542
  YS02001661           JUNCTION        0.04          0.606        0.784
  YS02001748           JUNCTION        0.21          0.685        0.505
  YS02001751           JUNCTION        0.36          0.736        0.464
  YS02001754           JUNCTION        0.57          0.729        0.421
  YS02001757           JUNCTION        0.94          1.017        0.193
  YS02001759           JUNCTION        0.85          1.014        0.196
  YS02001762           JUNCTION        0.81          0.987        0.163
  YS02001765           JUNCTION        0.76          0.947        0.153
  YS02001767           JUNCTION        0.73          0.922        0.108
  YS02001770           JUNCTION        0.70          0.920        0.000
  YS02001774           JUNCTION        0.79          1.000        0.050
  YS02001779           JUNCTION        0.57          0.680        0.000
  YS02001783           JUNCTION        0.57          0.533        1.067
  YS02001784           JUNCTION        0.55          0.374        1.116
  YS02001786           JUNCTION        0.44          0.117        1.313
  YS02001882           JUNCTION        0.52          0.830        0.000
  YS02001884           JUNCTION        0.53          0.865        0.005
  YS02001887           JUNCTION        0.56          0.877        0.073
  YS02001890           JUNCTION        0.57          0.760        0.000
  YS02001895           JUNCTION        0.51          0.565        0.185
  YS02001898           JUNCTION        0.50          0.534        0.206
  YS02001901           JUNCTION        0.55          0.679        0.191
  YS02001904           JUNCTION        0.54          0.637        0.213
  YS02001907           JUNCTION        0.79          0.950        0.000
  YS02001910           JUNCTION        0.60          0.965        0.135
  YS02001915           JUNCTION        0.51          0.978        0.022
  YS02001918           JUNCTION        0.43          0.810        0.000
  YS02001920           JUNCTION        0.44          1.140        0.000
  YS02001923           JUNCTION        0.12          0.820        0.000
  YS02001926           JUNCTION        0.15          0.900        0.000
  YS02001929           JUNCTION        0.01          0.780        0.000
  YS02006553           JUNCTION        0.80          0.980        0.210
  YS02006556           JUNCTION        0.69          0.923        0.427
  YS02006558           JUNCTION        0.68          0.917        0.483
  YS02006561           JUNCTION        0.39          0.253        0.897
  YS02163301           JUNCTION        1.00          0.927        0.103
  YS02163601           JUNCTION        1.06          1.036        0.044
  YS02164001           JUNCTION        0.97          0.956        0.144
  
  
  *********************
  Node Flooding Summary
  *********************
  
  Flooding refers to all water that overflows a node, whether it ponds or not.
  --------------------------------------------------------------------------
                                                             Total   Maximum
                                 Maximum   Time of Max       Flood    Ponded
                        Hours       Rate    Occurrence      Volume     Depth
  Node                 Flooded       LPS   days hr:min    10^6 ltr    Meters
  --------------------------------------------------------------------------
  WS02006242              0.01      5.47      0  02:00       0.000     0.000
  WS02006248              0.02     24.53      0  02:25       0.001     0.000
  WS02006249              1.04    130.66      0  01:59       0.239     0.000
  WS02006252              0.01    245.63      0  00:00       0.000     0.000
  WS02006256              1.44    293.19      0  00:00       0.483     0.000
  YS02001580              0.01    129.53      0  01:53       0.000     0.000
  YS02001583              0.01     58.21      0  01:53       0.000     0.000
  YS02001586              0.52    435.58      0  02:04       0.398     0.000
  YS02001590              0.01      2.69      0  01:53       0.000     0.000
  YS02001600              0.01      0.81      0  01:53       0.000     0.000
  YS02001601              0.72   1277.44      0  02:03       1.491     0.000
  YS02001602              0.62     62.02      0  02:07       0.127     0.000
  YS02001605              0.01      3.14      0  01:52       0.000     0.000
  YS02001607              0.01     28.89      0  01:53       0.000     0.000
  YS02001610              0.55    739.08      0  02:04       0.747     0.000
  YS02001616              0.01     50.79      0  01:53       0.000     0.000
  YS02001619              0.01     48.40      0  01:52       0.000     0.000
  YS02001622              0.01    105.99      0  01:52       0.000     0.000
  YS02001625              0.52   1354.38      0  02:04       1.305     0.000
  YS02001629              0.13    187.26      0  02:00       0.048     0.000
  YS02001644              0.23   1112.73      0  02:02       0.509     0.000
  YS02001770              0.01      1.20      0  02:01       0.000     0.000
  YS02001779              0.20    604.81      0  02:02       0.241     0.000
  YS02001882              0.01     37.61      0  01:54       0.000     0.000
  YS02001890              0.18    345.55      0  02:01       0.114     0.000
  YS02001907              0.37   1972.82      0  02:02       1.384     0.000
  YS02001918              0.01    174.14      0  01:57       0.002     0.000
  YS02001920              0.01     51.29      0  01:57       0.000     0.000
  YS02001923              0.01     50.36      0  01:57       0.000     0.000
  YS02001926              0.01    247.50      0  01:57       0.002     0.000
  YS02001929              0.01     50.74      0  01:57       0.000     0.000
  
  
  **********************
  Storage Volume Summary
  **********************
  
  ------------------------------------------------------------------------------------------------
                         Average    Avg   Evap  Exfil     Maximum    Max    Time of Max    Maximum
                          Volume   Pcnt   Pcnt   Pcnt      Volume   Pcnt     Occurrence    Outflow
  Storage Unit           1000 m³   Full   Loss   Loss     1000 m³   Full    days hr:min        LPS
  ------------------------------------------------------------------------------------------------
  CC-storage               2.597   40.5    0.0    0.0       4.881   76.1       0  02:30    1783.53
  JK-storage               0.141   48.5    0.0    0.0       0.213   73.0       0  02:05    2300.00
  
  
  ***********************
  Outfall Loading Summary
  ***********************
  
  -----------------------------------------------------------
                         Flow       Avg       Max       Total
                         Freq      Flow      Flow      Volume
  Outfall Node           Pcnt       LPS       LPS    10^6 ltr
  -----------------------------------------------------------
  CC-1                  23.42    683.00    683.00       3.968
  CC-2                  21.37    683.00    683.00       3.340
  JK-1                  10.82   1000.00   1000.00       2.510
  JK-2                   0.70   1000.00   1000.00       0.199
  WSC                   99.96    257.03    559.20       5.662
  -----------------------------------------------------------
  System                31.25   3623.03   3917.39      15.679
  
  
  ********************
  Link Flow Summary
  ********************
  
  -----------------------------------------------------------------------------
                                 Maximum  Time of Max   Maximum    Max/    Max/
                                  |Flow|   Occurrence   |Veloc|    Full    Full
  Link                 Type          LPS  days hr:min     m/sec    Flow   Depth
  -----------------------------------------------------------------------------
  1                    CONDUIT    559.20     0  02:29      2.83    0.19    0.30
  WS02003060WS02003069 CONDUIT    559.22     0  02:27      1.65    0.22    0.34
  WS02003066WSF200     CONDUIT    542.67     0  02:27      2.86    0.09    0.22
  WS02003067WS02003066 CONDUIT    542.49     0  02:26      1.21    0.17    0.42
  WS02003069WS02003072 CONDUIT    558.50     0  02:28      1.37    0.27    0.39
  WS02003072WS02003073 CONDUIT    557.94     0  02:28      1.44    1.21    0.38
  WS02004401WS02004402 CONDUIT    565.02     0  02:25      0.98    0.68    0.89
  WS02004402WS02004403 CONDUIT    569.20     0  02:25      0.97    0.82    0.91
  WS02004403WS02004404 CONDUIT    575.59     0  02:24      0.92    0.42    0.96
  WS02004404WS02004405 CONDUIT    613.87     0  02:24      1.08    6.01    0.98
  WS02004405WS02004406 CONDUIT    563.67     0  02:25      0.99    1.11    0.97
  WS02004406WS02004407 CONDUIT    551.26     0  02:25      1.05    0.25    0.63
  WS02004407WS02004409 CONDUIT    548.18     0  02:25      1.53    0.19    0.49
  WS02004409WS02004410 CONDUIT    545.46     0  02:25      1.01    0.71    0.68
  WS02004410WS02004411 CONDUIT    544.34     0  02:25      0.94    0.74    0.69
  WS02004411WS02004412 CONDUIT    543.56     0  02:26      0.93    0.77    0.70
  WS02004412WS02004413 CONDUIT    543.22     0  02:26      0.83    0.36    0.78
  WS02004413WS02003067 CONDUIT    542.28     0  02:26      1.12    0.23    0.59
  WS02006109WS02006110 CONDUIT    555.34     0  02:11      1.11    1.07    1.00
  WS02006110WS02006113 CONDUIT    569.02     0  02:32      1.38    0.52    0.79
  WS02006111WS02006112 CONDUIT    543.46     0  03:03      1.81    0.26    0.67
  WS02006112WS02006115 CONDUIT    556.25     0  03:30      0.84    0.33    0.88
  WS02006113WS02006111 CONDUIT    563.13     0  03:01      2.47    0.68    0.46
  WS02006115WS02006116 CONDUIT    551.68     0  02:25      1.02    0.71    0.79
  WS02006116WS02004401 CONDUIT    555.70     0  02:25      0.98    0.77    0.87
  WS02006228WS02006109 CONDUIT    552.67     0  02:11      1.10    2.41    1.00
  WS02006229WS02006228 CONDUIT    552.29     0  02:11      1.14    1.83    1.00
  WS02006230WS02006229 CONDUIT    551.98     0  02:26      1.43   12.28    1.00
  WS02006231WS02006230 CONDUIT    580.62     0  02:00      1.58    8.81    1.00
  WS02006232WS02006231 CONDUIT    577.57     0  02:43      1.51    1.21    1.00
  WS02006234WS02006232 CONDUIT    576.73     0  02:43      1.50    1.17    1.00
  WS02006235WS02006234 CONDUIT    573.44     0  03:06      1.49    6.05    1.00
  WS02006238WS02006235 CONDUIT    427.52     0  02:50      1.46    0.95    1.00
  WS02006239WS02006238 CONDUIT    425.78     0  02:35      1.22    1.36    1.00
  WS02006240WS02006239 CONDUIT    424.36     0  02:50      1.30    1.34    1.00
  WS02006242WS02006240 CONDUIT    421.16     0  02:50      1.17    1.67    1.00
  WS02006243WS02006242 CONDUIT    420.52     0  02:50      1.43    0.90    1.00
  WS02006245WS02006243 CONDUIT    421.16     0  02:35      1.45    1.25    1.00
  WS02006247WS02006245 CONDUIT    421.73     0  02:35      1.43    3.34    1.00
  WS02006248WS02006247 CONDUIT    422.25     0  02:35      1.46    0.92    1.00
  WS02006249WS02006248 CONDUIT    422.97     0  02:35      1.39    2.32    1.00
  WS02006251WS02006249 CONDUIT    459.02     0  00:00      1.99    1.32    1.00
  WS02006252WS02006251 CONDUIT    413.97     0  01:59     24.61    1.52    1.00
  WS02006256WS02006235 CONDUIT    288.91     0  00:00      4.23    3.06    1.00
  WSF200WS02003060     CONDUIT    543.26     0  02:27      2.07    0.12    0.28
  YS02001580YS02001583 CONDUIT    140.38     0  01:53      0.67    0.54    1.00
  YS02001583YS02001586 CONDUIT    158.87     0  01:53      0.69    0.24    1.00
  YS02001586YS02001590 CONDUIT    317.97     0  01:58      1.25    0.56    1.00
  YS02001590YS02001593 CONDUIT    318.01     0  02:00      1.12    2.00    1.00
  YS02001593YS02001596 CONDUIT    318.01     0  01:57      1.73    0.50    1.00
  YS02001596YS02001600 CONDUIT    317.98     0  01:58      1.24    0.62    1.00
  YS02001600YS02001601 CONDUIT    318.07     0  02:00      1.12    0.55    1.00
  YS02001601YS02001602 CONDUIT    520.76     0  01:52      1.84    1.88    1.00
  YS02001602YS02001605 CONDUIT    520.81     0  01:52      1.84   11.02    1.00
  YS02001605YS02001607 CONDUIT    520.94     0  01:52      1.84    2.86    1.00
  YS02001607YS02001610 CONDUIT    527.60     0  01:52      0.67    0.50    1.00
  YS02001610YS02001613 CONDUIT    533.17     0  01:52      0.68    0.61    1.00
  YS02001613YS02001616 CONDUIT    528.86     0  01:52      0.68    0.45    1.00
  YS02001616YS02001619 CONDUIT    494.63     0  01:53      0.67    0.86    1.00
  YS02001619YS02001622 CONDUIT    952.24     0  02:02      1.21    1.40    1.00
  YS02001622YS02001625 CONDUIT    953.26     0  02:02      1.21    0.51    1.00
  YS02001625YS02001629 CONDUIT    928.07     0  01:53      1.19    0.44    1.00
  YS02001629YS02163301 CONDUIT    920.48     0  01:55      1.17    1.13    1.00
  YS02001633YS02163601 CONDUIT   1362.87     0  01:55      1.74    1.43    1.00
  YS02001641YS02001644 CONDUIT   1364.34     0  01:55      1.74    4.41    1.00
  YS02001644YS02001647 CONDUIT   1767.27     0  01:55      2.25    1.04    1.00
  YS02001647YS02001649 CONDUIT   1769.97     0  01:55      2.32    0.93    1.00
  YS02001649YS02001757 CONDUIT   1941.73     0  01:55      2.48    1.18    1.00
  YS02001652YS02001649 CONDUIT    917.66     0  02:02      1.17    0.45    1.00
  YS02001655YS02001652 CONDUIT    917.39     0  02:02      1.35    0.45    1.00
  YS02001658YS02001655 CONDUIT    917.78     0  02:02      1.90    0.39    1.00
  YS02001661YS02001658 CONDUIT    917.38     0  02:02      2.30    0.36    1.00
  YS02001664YS02001661 CONDUIT    916.34     0  02:02      2.28    0.29    0.79
  YS02001745YS02001748 CONDUIT    608.11     0  01:58      2.17    0.23    0.91
  YS02001748YS02001751 CONDUIT    582.96     0  02:02      1.69    0.29    1.00
  YS02001751YS02001754 CONDUIT    581.88     0  02:02      1.44    0.28    1.00
  YS02001754YS02001757 CONDUIT    582.14     0  02:02      0.74    0.23    1.00
  YS02001757CaochengTiaoxuchi CONDUIT   3254.95     0  01:58      4.14    1.41    1.00
  YS02001759YS02001757 CONDUIT   1348.36     0  02:01      1.72    0.96    1.00
  YS02001762YS02001759 CONDUIT    705.70     0  01:58      0.90    0.81    1.00
  YS02001765YS02001762 CONDUIT    709.27     0  01:58      0.90    0.67    1.00
  YS02001767YS02001765 CONDUIT    712.13     0  01:58      0.91    0.90    1.00
  YS02001770YS02001767 CONDUIT    712.45     0  01:58      0.91    2.82    1.00
  YS02001774YS02001770 CONDUIT    604.43     0  02:02      0.77    0.39    1.00
  YS02001779YS02001774 CONDUIT    605.17     0  02:02      0.77    0.30    1.00
  YS02001783YS02001784 CONDUIT   1166.32     0  01:59      2.32    1.61    1.00
  YS02001784YS02001785 CONDUIT   1166.54     0  01:59      2.32    2.71    1.00
  YS02001786YS02001788 CONDUIT   1168.85     0  01:59      2.49    2.25    0.89
  YS02001788YS02001790 CONDUIT   1179.89     0  02:00      2.72    0.87    0.85
  YS02001790YS02001791 CONDUIT   1302.97     0  02:01      3.45    1.42    0.71
  YS02001791YS02001793 CONDUIT   1257.94     0  02:01      6.68    0.54    0.45
  YS02001793JiankangQianchi CONDUIT   1219.19     0  02:03      2.41    0.10    0.65
  YS02001882YS02001884 CONDUIT     58.40     0  01:54      0.13    0.07    1.00
  YS02001884YS02001887 CONDUIT     85.76     0  01:54      0.11    0.11    1.00
  YS02001887YS02001890 CONDUIT    860.27     0  02:01      1.10    1.47    1.00
  YS02001890YS02001895 CONDUIT    517.36     0  02:05      0.66    0.24    1.00
  YS02001895YS02001898 CONDUIT    517.77     0  02:05      0.66    0.90    1.00
  YS02001898YS02001901 CONDUIT    517.84     0  02:05      0.66    0.33    1.00
  YS02001901YS02001904 CONDUIT    517.83     0  02:05      0.66    0.80    1.00
  YS02001904YS02001907 CONDUIT    517.43     0  02:05      0.66    0.18    1.00
  YS02001907YS02006553 CONDUIT    798.42     0  02:20      0.89    0.94    1.00
  YS02001910YS02001907 CONDUIT   1485.80     0  02:02      1.89    0.84    1.00
  YS02001915YS02001910 CONDUIT   1485.47     0  02:02      1.89    0.74    1.00
  YS02001918YS02001915 CONDUIT    499.77     0  02:02      0.64    0.28    1.00
  YS02001920YS02001918 CONDUIT    499.47     0  02:02      0.64    0.48    1.00
  YS02001923YS02001920 CONDUIT    496.72     0  02:02      0.69    0.22    1.00
  YS02001926YS02001923 CONDUIT    494.91     0  02:02      0.95    0.71    1.00
  YS02001929YS02001926 CONDUIT    494.91     0  02:03      1.12    0.24    1.00
  YS02006553YS02006556 CONDUIT    798.19     0  02:20      1.02    0.68    1.00
  YS02006556YS02006558 CONDUIT    799.47     0  02:20      1.02    0.63    1.00
  YS02006558YS02006561 CONDUIT   1171.69     0  01:56      4.14    2.59    1.00
  YS02006561YS02001783 CONDUIT   1166.98     0  01:59      2.32    0.60    1.00
  YS02163301YS02001633 CONDUIT    920.21     0  01:55      1.17    0.87    1.00
  YS02163601YS02164001 CONDUIT   1362.93     0  01:55      1.74    1.21    1.00
  YS02164001YS02001641 CONDUIT   1365.51     0  01:55      1.74    1.86    1.00
  CC-R1                PUMP       683.00     0  00:00              1.00
  CC-R2                PUMP       683.00     0  00:00              1.00
  CC-S1                PUMP       200.00     0  00:00              1.00
  CC-S2                PUMP       200.00     0  00:00              1.00
  JK-R1                PUMP      1000.00     0  00:00              1.00
  JK-R2                PUMP      1000.00     0  00:00              1.00
  JK-S                 PUMP       300.00     0  00:00              1.00
  
  
  ***************************
  Flow Classification Summary
  ***************************
  
  -------------------------------------------------------------------------------------
                      Adjusted    ---------- Fraction of Time in Flow Class ---------- 
                       /Actual         Up    Down  Sub   Sup   Up    Down  Norm  Inlet 
  Conduit               Length    Dry  Dry   Dry   Crit  Crit  Crit  Crit  Ltd   Ctrl  
  -------------------------------------------------------------------------------------
  1                       1.00   0.00  0.00  0.00  0.00  1.00  0.00  0.00  0.39  0.00
  WS02003060WS02003069    1.00   0.00  0.00  0.00  0.97  0.03  0.00  0.00  0.67  0.00
  WS02003066WSF200        1.00   0.13  0.00  0.00  0.00  0.87  0.00  0.00  0.75  0.00
  WS02003067WS02003066    1.00   0.10  0.02  0.00  0.88  0.00  0.00  0.00  0.00  0.00
  WS02003069WS02003072    1.00   0.00  0.00  0.00  0.99  0.01  0.00  0.00  0.73  0.00
  WS02003072WS02003073    1.00   0.00  0.00  0.00  0.00  0.00  0.00  1.00  0.00  0.00
  WS02004401WS02004402    1.00   0.02  0.00  0.00  0.98  0.00  0.00  0.00  0.00  0.00
  WS02004402WS02004403    1.00   0.02  0.00  0.00  0.97  0.00  0.00  0.00  0.00  0.00
  WS02004403WS02004404    1.00   0.00  0.03  0.00  0.97  0.00  0.00  0.00  0.00  0.00
  WS02004404WS02004405    1.00   0.00  0.00  0.00  1.00  0.00  0.00  0.00  0.02  0.00
  WS02004405WS02004406    1.00   0.00  0.00  0.00  1.00  0.00  0.00  0.00  0.00  0.00
  WS02004406WS02004407    1.00   0.00  0.05  0.00  0.95  0.00  0.00  0.00  0.00  0.00
  WS02004407WS02004409    1.00   0.05  0.00  0.00  0.94  0.01  0.00  0.00  0.94  0.00
  WS02004409WS02004410    1.00   0.05  0.00  0.00  0.95  0.00  0.00  0.00  0.03  0.00
  WS02004410WS02004411    1.00   0.05  0.00  0.00  0.95  0.00  0.00  0.00  0.01  0.00
  WS02004411WS02004412    1.00   0.05  0.00  0.00  0.95  0.00  0.00  0.00  0.00  0.00
  WS02004412WS02004413    1.00   0.05  0.00  0.00  0.94  0.00  0.00  0.00  0.01  0.00
  WS02004413WS02003067    1.00   0.06  0.04  0.00  0.00  0.00  0.90  0.00  0.00  0.00
  WS02006109WS02006110    1.00   0.00  0.01  0.00  0.98  0.00  0.01  0.00  0.00  0.00
  WS02006110WS02006113    1.00   0.01  0.01  0.00  0.98  0.00  0.00  0.00  0.00  0.00
  WS02006111WS02006112    1.00   0.02  0.00  0.00  0.98  0.00  0.00  0.00  0.98  0.00
  WS02006112WS02006115    1.00   0.02  0.00  0.00  0.97  0.00  0.00  0.00  0.00  0.00
  WS02006113WS02006111    1.00   0.02  0.00  0.00  0.00  0.98  0.00  0.00  0.16  0.00
  WS02006115WS02006116    1.00   0.02  0.00  0.00  0.97  0.00  0.00  0.01  0.00  0.00
  WS02006116WS02004401    1.00   0.02  0.00  0.00  0.98  0.00  0.00  0.00  0.00  0.00
  WS02006228WS02006109    1.00   0.00  0.00  0.00  1.00  0.00  0.00  0.00  0.00  0.00
  WS02006229WS02006228    1.00   0.00  0.00  0.00  0.99  0.00  0.00  0.01  0.00  0.00
  WS02006230WS02006229    1.00   0.00  0.00  0.00  0.99  0.00  0.00  0.01  0.01  0.00
  WS02006231WS02006230    1.00   0.00  0.00  0.00  0.26  0.00  0.74  0.00  0.00  0.00
  WS02006232WS02006231    1.00   0.00  0.00  0.00  0.98  0.00  0.02  0.00  0.00  0.00
  WS02006234WS02006232    1.00   0.00  0.00  0.00  1.00  0.00  0.00  0.00  0.06  0.00
  WS02006235WS02006234    1.00   0.00  0.00  0.00  0.90  0.00  0.10  0.00  0.00  0.00
  WS02006238WS02006235    1.00   0.00  0.00  0.00  1.00  0.00  0.00  0.00  0.00  0.00
  WS02006239WS02006238    1.00   0.00  0.00  0.00  1.00  0.00  0.00  0.00  0.19  0.00
  WS02006240WS02006239    1.00   0.00  0.00  0.00  0.69  0.00  0.00  0.30  0.03  0.00
  WS02006242WS02006240    1.00   0.00  0.00  0.00  0.98  0.00  0.01  0.00  0.00  0.00
  WS02006243WS02006242    1.00   0.00  0.00  0.00  0.98  0.00  0.00  0.01  0.50  0.00
  WS02006245WS02006243    1.00   0.00  0.00  0.00  0.85  0.00  0.00  0.15  0.01  0.00
  WS02006247WS02006245    1.00   0.00  0.00  0.00  0.98  0.00  0.00  0.02  0.00  0.00
  WS02006248WS02006247    1.00   0.00  0.00  0.00  0.98  0.00  0.00  0.02  0.42  0.00
  WS02006249WS02006248    1.00   0.00  0.00  0.00  0.50  0.00  0.50  0.00  0.00  0.00
  WS02006251WS02006249    1.00   0.00  0.00  0.00  0.99  0.01  0.00  0.00  0.51  0.00
  WS02006252WS02006251    1.00   0.07  0.41  0.00  0.13  0.00  0.38  0.00  0.00  0.00
  WS02006256WS02006235    1.00   0.00  0.00  0.00  0.99  0.01  0.00  0.00  0.00  0.00
  WSF200WS02003060        1.00   0.00  0.13  0.00  0.24  0.63  0.00  0.00  0.48  0.00
  YS02001580YS02001583    1.00   0.23  0.57  0.00  0.20  0.00  0.00  0.00  0.66  0.00
  YS02001583YS02001586    1.00   0.42  0.32  0.00  0.25  0.00  0.00  0.00  0.66  0.00
  YS02001586YS02001590    1.00   0.13  0.00  0.00  0.43  0.04  0.00  0.40  0.36  0.00
  YS02001590YS02001593    1.00   0.13  0.01  0.00  0.12  0.00  0.74  0.00  0.00  0.00
  YS02001593YS02001596    1.00   0.13  0.00  0.00  0.14  0.01  0.00  0.71  0.02  0.00
  YS02001596YS02001600    1.00   0.14  0.00  0.00  0.20  0.01  0.00  0.65  0.04  0.00
  YS02001600YS02001601    1.00   0.13  0.01  0.00  0.86  0.00  0.00  0.00  0.60  0.00
  YS02001601YS02001602    1.00   0.13  0.01  0.00  0.87  0.00  0.00  0.00  0.00  0.00
  YS02001602YS02001605    1.00   0.14  0.00  0.00  0.86  0.00  0.00  0.00  0.00  0.00
  YS02001605YS02001607    1.00   0.14  0.00  0.00  0.86  0.00  0.00  0.00  0.00  0.00
  YS02001607YS02001610    1.00   0.13  0.01  0.00  0.86  0.00  0.00  0.00  0.01  0.00
  YS02001610YS02001613    1.00   0.13  0.00  0.00  0.87  0.00  0.00  0.00  0.00  0.00
  YS02001613YS02001616    1.00   0.13  0.00  0.00  0.87  0.00  0.00  0.00  0.00  0.00
  YS02001616YS02001619    1.00   0.13  0.00  0.00  0.87  0.00  0.00  0.00  0.00  0.00
  YS02001619YS02001622    1.00   0.13  0.00  0.00  0.87  0.00  0.00  0.00  0.29  0.00
  YS02001622YS02001625    1.00   0.13  0.00  0.00  0.87  0.00  0.00  0.00  0.04  0.00
  YS02001625YS02001629    1.00   0.13  0.05  0.00  0.17  0.00  0.65  0.00  0.00  0.00
  YS02001629YS02163301    1.00   0.15  0.01  0.00  0.84  0.00  0.00  0.00  0.00  0.00
  YS02001633YS02163601    1.00   0.00  0.01  0.00  0.99  0.00  0.00  0.00  0.15  0.00
  YS02001641YS02001644    1.00   0.00  0.01  0.00  0.99  0.00  0.00  0.00  0.00  0.00
  YS02001644YS02001647    1.00   0.00  0.17  0.00  0.83  0.00  0.00  0.00  0.00  0.00
  YS02001647YS02001649    1.00   0.00  0.17  0.00  0.57  0.26  0.00  0.00  0.56  0.00
  YS02001649YS02001757    1.00   0.00  0.00  0.00  0.87  0.13  0.00  0.00  0.42  0.00
  YS02001652YS02001649    1.00   0.00  0.00  0.00  0.97  0.03  0.00  0.00  0.73  0.00
  YS02001655YS02001652    1.00   0.00  0.00  0.00  0.20  0.01  0.00  0.79  0.05  0.00
  YS02001658YS02001655    1.00   0.00  0.14  0.00  0.68  0.18  0.00  0.00  0.66  0.00
  YS02001661YS02001658    1.00   0.14  0.00  0.00  0.51  0.35  0.00  0.00  0.68  0.00
  YS02001664YS02001661    1.00   0.13  0.00  0.00  0.78  0.09  0.00  0.00  0.85  0.00
  YS02001745YS02001748    1.00   0.00  0.00  0.00  0.11  0.01  0.00  0.88  0.05  0.00
  YS02001748YS02001751    1.00   0.00  0.00  0.00  0.84  0.16  0.00  0.00  0.76  0.00
  YS02001751YS02001754    1.00   0.00  0.00  0.00  0.19  0.00  0.00  0.81  0.04  0.00
  YS02001754YS02001757    1.00   0.00  0.00  0.00  1.00  0.00  0.00  0.00  0.80  0.00
  YS02001757CaochengTiaoxuchi    1.00   0.00  0.00  0.00  1.00  0.00  0.00  0.00  0.63  0.00
  YS02001759YS02001757    1.00   0.00  0.00  0.00  1.00  0.00  0.00  0.00  0.52  0.00
  YS02001762YS02001759    1.00   0.00  0.00  0.00  1.00  0.00  0.00  0.00  0.06  0.00
  YS02001765YS02001762    1.00   0.00  0.00  0.00  1.00  0.00  0.00  0.00  0.66  0.00
  YS02001767YS02001765    1.00   0.00  0.00  0.00  1.00  0.00  0.00  0.00  0.01  0.00
  YS02001770YS02001767    1.00   0.00  0.00  0.00  1.00  0.00  0.00  0.00  0.00  0.00
  YS02001774YS02001770    1.00   0.00  0.13  0.00  0.70  0.00  0.17  0.00  0.03  0.00
  YS02001779YS02001774    1.00   0.00  0.00  0.00  1.00  0.00  0.00  0.00  0.76  0.00
  YS02001783YS02001784    1.00   0.00  0.18  0.00  0.82  0.00  0.00  0.00  0.55  0.00
  YS02001784YS02001785    1.00   0.00  0.00  0.00  1.00  0.00  0.00  0.00  0.17  0.00
  YS02001786YS02001788    1.00   0.00  0.00  0.00  0.80  0.20  0.00  0.00  0.00  0.00
  YS02001788YS02001790    1.00   0.00  0.00  0.00  0.21  0.79  0.00  0.00  0.80  0.00
  YS02001790YS02001791    1.00   0.00  0.00  0.00  0.01  0.99  0.00  0.00  0.16  0.00
  YS02001791YS02001793    1.00   0.00  0.00  0.00  0.00  1.00  0.00  0.00  0.01  0.00
  YS02001793JiankangQianchi    1.00   0.00  0.00  0.00  0.99  0.01  0.00  0.00  0.95  0.00
  YS02001882YS02001884    1.00   0.15  0.01  0.00  0.84  0.00  0.00  0.00  0.00  0.00
  YS02001884YS02001887    1.00   0.06  0.05  0.00  0.89  0.00  0.00  0.00  0.00  0.00
  YS02001887YS02001890    1.00   0.00  0.00  0.00  0.97  0.00  0.03  0.00  0.00  0.00
  YS02001890YS02001895    1.00   0.00  0.16  0.00  0.84  0.00  0.00  0.00  0.00  0.00
  YS02001895YS02001898    1.00   0.16  0.00  0.00  0.82  0.00  0.02  0.00  0.00  0.00
  YS02001898YS02001901    1.00   0.17  0.00  0.00  0.83  0.00  0.00  0.00  0.01  0.00
  YS02001901YS02001904    1.00   0.17  0.00  0.00  0.83  0.00  0.00  0.00  0.00  0.00
  YS02001904YS02001907    1.00   0.00  0.16  0.00  0.83  0.00  0.00  0.00  0.00  0.00
  YS02001907YS02006553    1.00   0.00  0.02  0.00  0.98  0.00  0.00  0.00  0.00  0.00
  YS02001910YS02001907    1.00   0.00  0.00  0.00  0.97  0.00  0.00  0.03  0.12  0.00
  YS02001915YS02001910    1.00   0.00  0.00  0.00  0.97  0.03  0.00  0.00  0.16  0.00
  YS02001918YS02001915    1.00   0.00  0.01  0.00  0.98  0.02  0.00  0.00  0.75  0.00
  YS02001920YS02001918    1.00   0.00  0.01  0.00  0.99  0.00  0.00  0.00  0.00  0.00
  YS02001923YS02001920    1.00   0.00  0.00  0.00  1.00  0.00  0.00  0.00  0.92  0.00
  YS02001926YS02001923    1.00   0.00  0.07  0.00  0.06  0.00  0.86  0.00  0.00  0.00
  YS02001929YS02001926    1.00   0.00  0.13  0.00  0.87  0.00  0.00  0.00  0.82  0.00
  YS02006553YS02006556    1.00   0.01  0.00  0.00  0.99  0.00  0.00  0.00  0.03  0.00
  YS02006556YS02006558    1.00   0.00  0.00  0.00  1.00  0.00  0.00  0.00  0.00  0.00
  YS02006558YS02006561    1.00   0.18  0.00  0.00  0.06  0.76  0.00  0.00  0.18  0.00
  YS02006561YS02001783    1.00   0.18  0.00  0.00  0.09  0.73  0.00  0.00  0.68  0.00
  YS02163301YS02001633    1.00   0.00  0.15  0.00  0.85  0.00  0.00  0.00  0.00  0.00
  YS02163601YS02164001    1.00   0.00  0.08  0.00  0.92  0.00  0.00  0.00  0.00  0.00
  YS02164001YS02001641    1.00   0.01  0.07  0.00  0.92  0.00  0.00  0.00  0.05  0.00
  
  
  *************************
  Conduit Surcharge Summary
  *************************
  
  ----------------------------------------------------------------------------
                                                           Hours        Hours 
                         --------- Hours Full --------   Above Full   Capacity
  Conduit                Both Ends  Upstream  Dnstream   Normal Flow   Limited
  ----------------------------------------------------------------------------
  WS02003072WS02003073        0.01      0.01      0.01      1.47         0.01
  WS02004403WS02004404        0.01      0.01      0.02      0.01         0.01
  WS02004404WS02004405        0.01      0.02      0.01      3.63         0.01
  WS02004405WS02004406        0.01      0.01      0.01      0.75         0.01
  WS02006109WS02006110        0.75      0.75      1.99      0.92         0.01
  WS02006110WS02006113        0.01      0.01      1.98      0.01         0.01
  WS02006111WS02006112        0.01      0.01      2.21      0.01         0.01
  WS02006112WS02006115        0.01      0.01      1.05      0.01         0.01
  WS02006228WS02006109        1.96      1.99      1.96      2.52         1.96
  WS02006229WS02006228        1.96      1.97      1.96      2.19         1.94
  WS02006230WS02006229        2.04      2.14      2.04      4.42         2.04
  WS02006231WS02006230        0.76      0.76      1.05      4.04         0.01
  WS02006232WS02006231        0.96      0.96      1.99      1.06         0.01
  WS02006234WS02006232        1.89      1.89      1.99      1.03         1.02
  WS02006235WS02006234        1.36      1.37      1.90      3.79         0.03
  WS02006238WS02006235        1.92      1.92      1.98      0.01         0.01
  WS02006239WS02006238        1.96      1.98      1.96      2.08         1.72
  WS02006240WS02006239        1.94      1.96      1.94      2.09         1.60
  WS02006242WS02006240        1.96      1.96      2.02      2.23         0.01
  WS02006243WS02006242        1.96      1.96      1.98      0.01         0.08
  WS02006245WS02006243        1.95      1.95      1.96      1.32         1.19
  WS02006247WS02006245        1.95      1.95      1.95      3.45         1.93
  WS02006248WS02006247        1.94      1.94      1.95      0.01         0.08
  WS02006249WS02006248        1.94      1.94      1.94      3.41         0.01
  WS02006251WS02006249        1.94      1.94      1.94      2.19         1.84
  WS02006252WS02006251        2.25      2.25      2.26      2.25         0.01
  WS02006256WS02006235        3.83      3.90      6.43      1.45         0.01
  YS02001580YS02001583        0.65      0.65      0.71      0.01         0.01
  YS02001583YS02001586        0.66      0.66      0.80      0.01         0.01
  YS02001586YS02001590        0.80      0.80      0.87      0.01         0.01
  YS02001590YS02001593        0.87      0.87      0.89      0.91         0.01
  YS02001593YS02001596        0.89      0.89      0.99      0.01         0.01
  YS02001596YS02001600        1.04      1.04      1.14      0.01         0.01
  YS02001600YS02001601        1.21      1.21      1.46      0.01         0.01
  YS02001601YS02001602        1.37      1.37      1.50      1.13         0.01
  YS02001602YS02001605        1.33      1.33      1.37      2.27         0.01
  YS02001605YS02001607        1.29      1.33      1.29      1.43         1.29
  YS02001607YS02001610        0.87      0.87      0.89      0.01         0.01
  YS02001610YS02001613        0.86      0.86      0.89      0.01         0.01
  YS02001613YS02001616        0.82      0.82      0.86      0.01         0.01
  YS02001616YS02001619        0.80      0.80      0.82      0.01         0.02
  YS02001619YS02001622        0.80      0.80      0.80      0.86         0.75
  YS02001622YS02001625        0.80      0.80      0.99      0.01         0.01
  YS02001625YS02001629        0.76      0.76      0.99      0.01         0.01
  YS02001629YS02163301        0.99      0.99      1.00      0.05         0.13
  YS02001633YS02163601        1.02      1.02      1.06      0.29         0.29
  YS02001641YS02001644        0.94      0.97      0.94      1.53         0.93
  YS02001644YS02001647        0.74      0.74      0.94      0.03         0.01
  YS02001647YS02001649        0.74      0.74      0.87      0.01         0.01
  YS02001649YS02001757        0.87      0.87      0.94      0.07         0.03
  YS02001652YS02001649        0.70      0.70      0.87      0.01         0.01
  YS02001655YS02001652        0.49      0.49      0.67      0.01         0.01
  YS02001658YS02001655        0.26      0.26      0.49      0.01         0.01
  YS02001661YS02001658        0.04      0.04      0.26      0.01         0.01
  YS02001664YS02001661        0.01      0.01      0.12      0.01         0.01
  YS02001745YS02001748        0.01      0.01      0.21      0.01         0.01
  YS02001748YS02001751        0.24      0.24      0.36      0.01         0.01
  YS02001751YS02001754        0.36      0.36      0.57      0.01         0.01
  YS02001754YS02001757        0.63      0.63      0.94      0.01         0.01
  YS02001757CaochengTiaoxuchi        0.94      0.94      1.94      0.38         0.35
  YS02001759YS02001757        0.85      0.85      0.94      0.01         0.01
  YS02001762YS02001759        0.81      0.81      0.85      0.01         0.02
  YS02001765YS02001762        0.76      0.76      0.81      0.01         0.01
  YS02001767YS02001765        0.73      0.73      0.76      0.01         0.02
  YS02001770YS02001767        0.73      0.73      0.73      0.56         0.50
  YS02001774YS02001770        0.70      0.70      0.79      0.01         0.01
  YS02001779YS02001774        0.57      0.57      0.79      0.01         0.01
  YS02001783YS02001784        0.55      0.57      0.55      0.72         0.55
  YS02001784YS02001785        0.44      0.55      0.44      0.96         0.44
  YS02001786YS02001788        0.01      0.44      0.01      0.82         0.01
  YS02001790YS02001791        0.01      0.01      0.01      0.53         0.01
  YS02001793JiankangQianchi        0.01      0.01      7.44      0.01         0.01
  YS02001882YS02001884        0.52      0.52      0.53      0.01         0.01
  YS02001884YS02001887        0.55      0.55      0.56      0.01         0.01
  YS02001887YS02001890        0.57      0.57      0.59      0.13         0.01
  YS02001890YS02001895        0.51      0.51      0.60      0.01         0.01
  YS02001895YS02001898        0.50      0.50      0.51      0.01         0.01
  YS02001898YS02001901        0.51      0.51      0.55      0.01         0.01
  YS02001901YS02001904        0.54      0.54      0.55      0.01         0.01
  YS02001904YS02001907        0.54      0.54      0.80      0.01         0.01
  YS02001907YS02006553        0.97      0.97      1.04      0.01         0.01
  YS02001910YS02001907        0.60      0.60      0.79      0.01         0.01
  YS02001915YS02001910        0.51      0.51      0.60      0.01         0.01
  YS02001918YS02001915        0.43      0.43      0.51      0.01         0.01
  YS02001920YS02001918        0.43      0.43      0.44      0.01         0.01
  YS02001923YS02001920        0.39      0.39      0.44      0.01         0.01
  YS02001926YS02001923        0.12      0.12      0.15      0.01         0.01
  YS02001929YS02001926        0.01      0.01      0.15      0.01         0.01
  YS02006553YS02006556        0.69      0.69      0.80      0.01         0.01
  YS02006556YS02006558        0.75      0.75      0.82      0.01         0.01
  YS02006558YS02006561        0.46      0.68      0.46      0.91         0.46
  YS02006561YS02001783        0.39      0.39      0.57      0.01         0.01
  YS02163301YS02001633        1.00      1.00      1.04      0.01         0.01
  YS02163601YS02164001        0.97      0.97      1.06      0.07         0.01
  YS02164001YS02001641        0.97      0.97      0.97      0.70         0.63
  
  
  ***************
  Pumping Summary
  ***************
  
  ---------------------------------------------------------------------------------------------------------
                                                  Min       Avg       Max     Total     Power    % Time Off
                        Percent   Number of      Flow      Flow      Flow    Volume     Usage    Pump Curve
  Pump                 Utilized   Start-Ups       LPS       LPS       LPS  10^6 ltr     Kw-hr    Low   High
  ---------------------------------------------------------------------------------------------------------
  CC-R1                   20.21           7      0.00    683.00    683.00     3.975     74.96    0.0   11.5
  CC-R2                   17.02           8      0.00    683.00    683.00     3.348     62.76    0.0   24.9
  CC-S1                   42.86           7      0.00    200.00    200.00     2.469     14.19    0.0    0.0
  CC-S2                   29.42           8      0.00    200.00    200.00     1.694      9.54    0.0    0.0
  JK-R1                    8.72          15      0.00   1000.00   1000.00     2.511     29.52    0.0    0.0
  JK-R2                    0.69           4      0.00   1000.00   1000.00     0.200      1.60    0.0    0.0
  JK-S                    17.97          29      0.00    300.00    300.00     1.553     21.25    0.0    0.0
  

  Analysis begun on:  Mon Feb 24 09:49:51 2025
  Analysis ended on:  Mon Feb 24 09:49:53 2025
  Total elapsed time: 00:00:02