
  EPA STORM WATER MANAGEMENT MODEL - VERSION 5.2 (Build 5.2.4)
  PYSWMM TOOLKIT API - VERSION v1.0 (2023-11-27)
  ------------------------------------------------------------

  WARNING 04: minimum elevation drop used for Conduit WS02004404WS02004405
  WARNING 03: negative offset ignored for Link YS02001904YS02001907
  
  ****************
  Analysis Options
  ****************
  Flow Units ............... LPS
  Process Models:
    Rainfall/Runoff ........ YES
    RDII ................... NO
    Snowmelt ............... NO
    Groundwater ............ NO
    Flow Routing ........... YES
    Ponding Allowed ........ NO
    Water Quality .......... NO
  Infiltration Method ...... HORTON
  Flow Routing Method ...... DYNWAVE
  Surcharge Method ......... EXTRAN
  Starting Date ............ 08/28/2015 08:00:00
  Ending Date .............. 08/28/2015 16:00:00
  Antecedent Dry Days ...... 8.0
  Report Time Step ......... 00:01:00
  Wet Time Step ............ 00:01:00
  Dry Time Step ............ 00:01:00
  Routing Time Step ........ 30.00 sec
  Variable Time Step ....... YES
  Maximum Trials ........... 8
  Number of Threads ........ 4
  Head Tolerance ........... 0.001500 m
  
  
  **************************        Volume         Depth
  Runoff Quantity Continuity     hectare-m            mm
  **************************     ---------       -------
  Total Precipitation ......         2.185        65.883
  Evaporation Loss .........         0.000         0.000
  Infiltration Loss ........         0.099         2.978
  Surface Runoff ...........         2.054        61.926
  Final Storage ............         0.033         0.994
  Continuity Error (%) .....        -0.024
  
  
  **************************        Volume        Volume
  Flow Routing Continuity        hectare-m      10^6 ltr
  **************************     ---------     ---------
  Dry Weather Inflow .......         0.025         0.251
  Wet Weather Inflow .......         2.054        20.545
  Groundwater Inflow .......         0.000         0.000
  RDII Inflow ..............         0.000         0.000
  External Inflow ..........         0.083         0.834
  External Outflow .........         1.567        15.667
  Flooding Loss ............         0.666         6.655
  Evaporation Loss .........         0.000         0.000
  Exfiltration Loss ........         0.000         0.000
  Initial Stored Volume ....         0.243         2.431
  Final Stored Volume ......         0.182         1.822
  Continuity Error (%) .....        -0.349
  
  
  *************************
  Highest Continuity Errors
  *************************
  Node YS02001583 (-5.60%)
  Node YS02001884 (4.91%)
  Node WS02006256 (-2.42%)
  
  
  ***************************
  Time-Step Critical Elements
  ***************************
  Link WS02006252WS02006251 (32.72%)
  Link WS02006238WS02006235 (20.68%)
  Link WS02004404WS02004405 (14.02%)
  Link WS02006235WS02006234 (11.16%)
  Link YS02001791YS02001793 (6.93%)
  
  
  ********************************
  Highest Flow Instability Indexes
  ********************************
  Link WS02006113WS02006111 (44)
  Link WS02006111WS02006112 (21)
  Link WS02006256WS02006235 (19)
  Link WS02006238WS02006235 (18)
  Link WS02006252WS02006251 (16)
  
  
  *********************************
  Most Frequent Nonconverging Nodes
  *********************************
  Node CC-1 (13.44%)
  Node CC-2 (13.44%)
  Node JK-1 (13.44%)
  Node JK-2 (13.44%)
  Node WSC (13.44%)
  
  
  *************************
  Routing Time Step Summary
  *************************
  Minimum Time Step           :     0.01 sec
  Average Time Step           :     2.39 sec
  Maximum Time Step           :     7.04 sec
  % of Time in Steady State   :     0.00
  Average Iterations per Step :     3.27
  % of Steps Not Converging   :    13.44
  Time Step Frequencies       :
     30.000 - 13.228 sec      :     0.00 %
     13.228 -  5.833 sec      :    11.01 %
      5.833 -  2.572 sec      :    26.86 %
      2.572 -  1.134 sec      :    24.26 %
      1.134 -  0.500 sec      :    37.86 %
  
  
  ***************************
  Subcatchment Runoff Summary
  ***************************
  
  ------------------------------------------------------------------------------------------------------------------------------
                            Total      Total      Total      Total     Imperv       Perv      Total       Total     Peak  Runoff
                           Precip      Runon       Evap      Infil     Runoff     Runoff     Runoff      Runoff   Runoff   Coeff
  Subcatchment                 mm         mm         mm         mm         mm         mm         mm    10^6 ltr      LPS
  ------------------------------------------------------------------------------------------------------------------------------
  sub60                     65.88       0.00       0.00       1.79      56.78       6.12      62.90        0.83   594.71   0.955
  sub61                     65.88       0.00       0.00       2.59      53.55       8.61      62.17        1.14   824.76   0.944
  sub62                     65.88       0.00       0.00       1.19      59.33       4.08      63.41        1.74  1161.25   0.962
  sub63                     65.88       0.00       0.00       4.78      45.81      14.33      60.14        1.37   925.56   0.913
  sub64                     65.88       0.00       0.00       2.42      54.80       7.47      62.26        1.50   940.61   0.945
  sub65                     65.88       0.00       0.00       2.09      56.07       6.47      62.54        1.72  1051.38   0.949
  sub66                     65.88       0.00       0.00       5.94      45.70      13.17      58.87        2.75  1367.79   0.894
  sub67                     65.88       0.00       0.00       1.15      59.37       4.12      63.49        1.18   896.05   0.964
  sub68                     65.88       0.00       0.00       2.15      55.47       7.08      62.55        1.72  1192.09   0.949
  sub69                     65.88       0.00       0.00       1.91      55.89       7.98      63.87        2.36  1399.62   0.969
  sub70                     65.88       0.00       0.00       6.40      43.32      16.00      59.32        1.71   768.00   0.900
  sub71                     65.88       0.00       0.00       1.22      59.29       4.05      63.34        1.66  1017.18   0.961
  sub72                     65.88       0.00       0.00       1.09      59.87       3.53      63.40        0.87   492.35   0.962
  
  
  ******************
  Node Depth Summary
  ******************
  
  ---------------------------------------------------------------------------------
                                 Average  Maximum  Maximum  Time of Max    Reported
                                   Depth    Depth      HGL   Occurrence   Max Depth
  Node                 Type       Meters   Meters   Meters  days hr:min      Meters
  ---------------------------------------------------------------------------------
  WS02003060           JUNCTION     0.23     0.38     5.32     0  02:39        0.38
  WS02003066           JUNCTION     0.19     0.30     5.85     0  02:40        0.30
  WS02003067           JUNCTION     0.49     0.70     6.02     0  02:38        0.70
  WS02003069           JUNCTION     0.25     0.43     5.01     0  02:39        0.43
  WS02003072           JUNCTION     0.32     0.50     4.87     0  02:40        0.50
  WS02003073           JUNCTION     0.18     0.30     4.36     0  02:42        0.30
  WS02004401           JUNCTION     0.57     0.85     6.85     0  02:44        0.85
  WS02004402           JUNCTION     0.61     0.88     6.84     0  02:45        0.88
  WS02004403           JUNCTION     0.63     0.89     6.82     0  02:36        0.89
  WS02004404           JUNCTION     0.71     0.96     6.81     0  02:45        0.96
  WS02004405           JUNCTION     0.70     0.96     6.81     0  02:45        0.96
  WS02004406           JUNCTION     0.72     0.96     6.79     0  02:36        0.96
  WS02004407           JUNCTION     0.17     0.30     6.61     0  02:36        0.30
  WS02004409           JUNCTION     0.38     0.67     6.44     0  02:37        0.67
  WS02004410           JUNCTION     0.40     0.68     6.40     0  02:37        0.68
  WS02004411           JUNCTION     0.43     0.69     6.37     0  02:39        0.69
  WS02004412           JUNCTION     0.45     0.70     6.34     0  02:37        0.70
  WS02004413           JUNCTION     0.61     0.86     6.33     0  02:38        0.86
  WS02006109           JUNCTION     0.63     1.34     7.96     0  02:16        1.34
  WS02006110           JUNCTION     0.63     1.55     8.14     0  02:16        1.55
  WS02006111           JUNCTION     0.17     0.29     6.99     0  03:08        0.29
  WS02006112           JUNCTION     0.73     1.07     6.95     0  02:27        1.06
  WS02006113           JUNCTION     0.26     0.46     7.35     0  03:06        0.46
  WS02006115           JUNCTION     0.46     0.75     6.89     0  02:41        0.75
  WS02006116           JUNCTION     0.54     0.83     6.87     0  02:35        0.83
  WS02006228           JUNCTION     0.62     1.25     7.90     0  02:03        1.16
  WS02006229           JUNCTION     0.59     1.19     7.89     0  02:15        1.13
  WS02006230           JUNCTION     0.59     1.35     8.09     0  02:15        1.29
  WS02006231           JUNCTION     0.40     1.22     8.34     0  02:05        1.01
  WS02006232           JUNCTION     0.53     1.47     8.51     0  01:50        1.21
  WS02006234           JUNCTION     0.46     1.51     8.67     0  02:05        1.42
  WS02006235           JUNCTION     0.50     1.56     8.73     0  03:48        1.56
  WS02006238           JUNCTION     0.52     1.59     8.74     0  03:48        1.59
  WS02006239           JUNCTION     0.49     1.54     8.75     0  03:06        1.54
  WS02006240           JUNCTION     0.46     1.52     8.82     0  03:06        1.52
  WS02006242           JUNCTION     0.52     1.55     8.82     0  03:06        1.55
  WS02006243           JUNCTION     0.44     1.41     8.83     0  03:06        1.41
  WS02006245           JUNCTION     0.44     1.32     8.80     0  03:06        1.32
  WS02006247           JUNCTION     0.47     1.26     8.76     0  03:06        1.26
  WS02006248           JUNCTION     0.43     1.10     8.69     0  02:02        1.10
  WS02006249           JUNCTION     0.46     1.09     8.69     0  02:02        1.09
  WS02006251           JUNCTION     0.46     1.34     9.01     0  02:15        1.13
  WS02006252           JUNCTION     0.33     1.50     9.74     0  00:00        0.69
  WS02006256           JUNCTION     0.99     2.35     9.28     0  00:00        2.35
  WSF200               JUNCTION     0.16     0.29     5.52     0  02:40        0.29
  YS02001580           JUNCTION     0.10     1.05     9.59     0  01:54        0.91
  YS02001583           JUNCTION     0.14     1.06     9.56     0  01:54        0.87
  YS02001586           JUNCTION     0.22     1.13     9.30     0  01:54        1.13
  YS02001590           JUNCTION     0.32     1.40     9.26     0  01:54        1.40
  YS02001593           JUNCTION     0.25     1.41     9.27     0  01:54        1.41
  YS02001596           JUNCTION     0.34     1.80     9.22     0  01:54        1.80
  YS02001600           JUNCTION     0.41     1.87     9.00     0  01:54        1.87
  YS02001601           JUNCTION     0.61     2.06     8.90     0  01:53        2.06
  YS02001602           JUNCTION     0.51     1.87     8.77     0  01:53        1.87
  YS02001605           JUNCTION     0.48     1.78     8.68     0  01:53        1.78
  YS02001607           JUNCTION     0.47     1.68     8.53     0  01:54        1.68
  YS02001610           JUNCTION     0.51     1.68     8.48     0  01:53        1.68
  YS02001613           JUNCTION     0.47     1.70     8.54     0  01:54        1.70
  YS02001616           JUNCTION     0.40     1.61     8.52     0  01:54        1.61
  YS02001619           JUNCTION     0.38     1.61     8.54     0  01:54        1.61
  YS02001622           JUNCTION     0.36     1.62     8.52     0  01:54        1.62
  YS02001625           JUNCTION     0.63     1.78     8.38     0  01:54        1.78
  YS02001629           JUNCTION     0.49     1.85     8.40     0  01:53        1.85
  YS02001633           JUNCTION     0.57     2.06     8.52     0  02:12        2.05
  YS02001641           JUNCTION     0.55     2.05     8.49     0  02:12        2.00
  YS02001644           JUNCTION     0.54     1.92     8.35     0  01:58        1.92
  YS02001647           JUNCTION     0.33     1.80     8.41     0  01:58        1.76
  YS02001649           JUNCTION     0.37     2.05     8.44     0  01:59        1.99
  YS02001652           JUNCTION     0.26     1.95     8.55     0  01:58        1.82
  YS02001655           JUNCTION     0.20     1.98     8.83     0  01:58        1.62
  YS02001658           JUNCTION     0.14     1.99     9.13     0  01:58        1.37
  YS02001661           JUNCTION     0.17     1.53     8.93     0  01:59        1.17
  YS02001664           JUNCTION     0.07     0.71     8.64     0  01:59        0.66
  YS02001745           JUNCTION     0.08     0.90     8.42     0  01:59        0.80
  YS02001748           JUNCTION     0.13     1.96     9.04     0  01:59        1.22
  YS02001751           JUNCTION     0.17     1.91     8.78     0  01:59        1.39
  YS02001754           JUNCTION     0.23     1.91     8.52     0  01:59        1.64
  YS02001757           JUNCTION     0.39     2.09     8.35     0  01:59        1.99
  YS02001759           JUNCTION     0.34     2.06     8.43     0  01:59        2.04
  YS02001762           JUNCTION     0.33     2.10     8.50     0  02:08        2.03
  YS02001765           JUNCTION     0.31     2.08     8.53     0  02:08        1.99
  YS02001767           JUNCTION     0.30     2.03     8.52     0  02:08        1.96
  YS02001770           JUNCTION     0.31     1.95     8.44     0  01:57        1.95
  YS02001774           JUNCTION     0.38     2.02     8.44     0  01:57        2.01
  YS02001779           JUNCTION     0.21     1.68     8.37     0  01:57        1.68
  YS02001783           JUNCTION     0.26     1.57     7.71     0  01:56        1.32
  YS02001784           JUNCTION     0.28     1.30     7.37     0  01:56        1.16
  YS02001786           JUNCTION     0.23     1.13     7.16     0  01:56        0.88
  YS02001788           JUNCTION     0.17     0.63     6.60     0  02:00        0.62
  YS02001790           JUNCTION     0.20     0.73     6.38     0  02:00        0.72
  YS02001791           JUNCTION     0.12     0.44     5.91     0  02:04        0.44
  YS02001793           JUNCTION     0.07     0.30     5.13     0  02:06        0.29
  YS02001882           JUNCTION     0.34     1.83     8.55     0  01:55        1.71
  YS02001884           JUNCTION     0.43     1.92     8.54     0  01:55        1.80
  YS02001887           JUNCTION     0.50     1.93     8.47     0  01:55        1.90
  YS02001890           JUNCTION     0.53     1.81     8.32     0  01:55        1.81
  YS02001895           JUNCTION     0.30     1.66     8.41     0  01:55        1.65
  YS02001898           JUNCTION     0.31     1.72     8.46     0  01:55        1.71
  YS02001901           JUNCTION     0.42     1.73     8.34     0  01:55        1.70
  YS02001904           JUNCTION     0.40     1.65     8.28     0  01:56        1.65
  YS02001907           JUNCTION     0.73     1.96     8.25     0  01:55        1.96
  YS02001910           JUNCTION     0.52     2.10     8.61     0  01:57        2.10
  YS02001915           JUNCTION     0.34     2.00     8.72     0  01:55        2.00
  YS02001918           JUNCTION     0.19     1.81     8.88     0  01:56        1.48
  YS02001920           JUNCTION     0.27     2.14     9.15     0  01:57        1.55
  YS02001923           JUNCTION     0.15     2.03     9.29     0  01:57        1.32
  YS02001926           JUNCTION     0.18     1.90     9.35     0  01:57        1.15
  YS02001929           JUNCTION     0.10     1.78     9.47     0  01:57        0.90
  YS02006553           JUNCTION     0.73     2.06     8.35     0  01:57        2.06
  YS02006556           JUNCTION     0.70     2.12     8.43     0  01:56        1.98
  YS02006558           JUNCTION     0.74     2.19     8.46     0  01:57        2.19
  YS02006561           JUNCTION     0.17     1.41     8.07     0  01:56        0.91
  YS02163301           JUNCTION     0.51     1.96     8.48     0  02:12        1.93
  YS02163601           JUNCTION     0.61     2.08     8.48     0  02:12        2.04
  YS02164001           JUNCTION     0.54     2.08     8.54     0  02:12        1.94
  CC-1                 OUTFALL      0.00     0.00     0.00     0  00:00        0.00
  CC-2                 OUTFALL      0.00     0.00     0.00     0  00:00        0.00
  JK-1                 OUTFALL      0.00     0.00     0.00     0  00:00        0.00
  JK-2                 OUTFALL      0.00     0.00     0.00     0  00:00        0.00
  WSC                  OUTFALL      0.18     0.30     0.97     0  02:42        0.30
  CC-storage           STORAGE      0.83     1.61     7.11     0  02:30        1.61
  JK-storage           STORAGE      2.11     4.22     5.02     0  02:05        4.16
  
  
  *******************
  Node Inflow Summary
  *******************
  
  -------------------------------------------------------------------------------------------------
                                  Maximum  Maximum                  Lateral       Total        Flow
                                  Lateral    Total  Time of Max      Inflow      Inflow     Balance
                                   Inflow   Inflow   Occurrence      Volume      Volume       Error
  Node                 Type           LPS      LPS  days hr:min    10^6 ltr    10^6 ltr     Percent
  -------------------------------------------------------------------------------------------------
  WS02003060           JUNCTION     16.53   553.42     0  02:40       0.476        5.13       0.047
  WS02003066           JUNCTION      0.00   536.73     0  02:38           0        4.65       0.030
  WS02003067           JUNCTION      0.00   536.70     0  02:38           0        4.66       0.091
  WS02003069           JUNCTION      0.32   553.62     0  02:39     0.00922        5.13       0.081
  WS02003072           JUNCTION      0.00   553.48     0  02:40           0        5.13       0.140
  WS02003073           JUNCTION      1.82   555.24     0  02:41      0.0524        5.17       0.115
  WS02004401           JUNCTION      0.00   538.67     0  02:44           0        4.76       0.220
  WS02004402           JUNCTION      0.00   538.16     0  02:35           0        4.75       0.223
  WS02004403           JUNCTION      0.00   538.00     0  02:45           0        4.74       0.217
  WS02004404           JUNCTION      0.16   537.75     0  02:36     0.00467        4.73       0.181
  WS02004405           JUNCTION      0.04   537.75     0  02:36      0.0011        4.72       0.269
  WS02004406           JUNCTION      0.00   537.77     0  02:45           0        4.71       0.447
  WS02004407           JUNCTION      0.00   537.45     0  02:36           0        4.69       0.028
  WS02004409           JUNCTION      0.00   537.25     0  02:36           0        4.69       0.063
  WS02004410           JUNCTION      0.00   537.06     0  02:37           0        4.69       0.097
  WS02004411           JUNCTION      0.00   536.95     0  02:37           0        4.68       0.123
  WS02004412           JUNCTION      0.00   536.91     0  02:37           0        4.68       0.163
  WS02004413           JUNCTION      0.00   536.84     0  02:39           0        4.67       0.288
  WS02006109           JUNCTION      1.23   565.23     0  03:06      0.0354        4.81       0.196
  WS02006110           JUNCTION      0.00   568.06     0  03:06           0         4.8       0.150
  WS02006111           JUNCTION      0.00   561.82     0  02:53           0        4.79       0.018
  WS02006112           JUNCTION      0.00   543.93     0  03:08           0        4.79       0.377
  WS02006113           JUNCTION      0.00   578.56     0  03:06           0        4.79       0.049
  WS02006115           JUNCTION      0.00   549.00     0  02:41           0        4.77       0.143
  WS02006116           JUNCTION      0.00   540.11     0  02:41           0        4.76       0.127
  WS02006228           JUNCTION      0.00   559.63     0  03:06           0        4.78       0.108
  WS02006229           JUNCTION      0.00   556.71     0  02:15           0        4.78       0.101
  WS02006230           JUNCTION     10.28   599.56     0  03:48       0.296        4.79       0.104
  WS02006231           JUNCTION      0.00   596.64     0  03:48           0        4.49       0.020
  WS02006232           JUNCTION      0.00   593.81     0  03:48           0         4.5       0.196
  WS02006234           JUNCTION      0.00   579.02     0  03:48           0        4.49      -0.335
  WS02006235           JUNCTION      0.00   562.05     0  02:15           0        4.59       0.333
  WS02006238           JUNCTION      0.00   427.30     0  03:45           0        3.72      -0.171
  WS02006239           JUNCTION      0.00   426.56     0  03:45           0        3.64      -0.189
  WS02006240           JUNCTION      0.00   426.19     0  03:45           0         3.6      -0.045
  WS02006242           JUNCTION      0.00   425.99     0  03:45           0         3.6       0.007
  WS02006243           JUNCTION      0.00   427.01     0  03:45           0        3.59      -0.182
  WS02006245           JUNCTION      0.00   427.75     0  03:45           0        3.61       0.442
  WS02006247           JUNCTION      0.00   427.03     0  03:45           0        3.61       0.011
  WS02006248           JUNCTION      0.00   428.85     0  03:45           0        3.61       0.008
  WS02006249           JUNCTION      0.00   463.17     0  01:10           0        3.82       0.479
  WS02006251           JUNCTION      0.08   406.88     0  03:48     0.00222        3.82       0.016
  WS02006252           JUNCTION      0.00   400.00     0  00:00           0        3.81      -0.289
  WS02006256           JUNCTION      0.00   300.00     0  00:00           0        1.27      -2.362
  WSF200               JUNCTION      0.00   536.75     0  02:38           0        4.65       0.011
  YS02001580           JUNCTION      0.00   125.67     0  01:54           0     0.00438      -0.623
  YS02001583           JUNCTION      0.00   187.05     0  01:54           0      0.0152      -5.306
  YS02001586           JUNCTION    768.00   768.00     0  02:04        1.71        1.73       0.075
  YS02001590           JUNCTION      0.00   318.60     0  02:05           0        1.32      -0.035
  YS02001593           JUNCTION      0.00   319.65     0  02:05           0        1.32       0.000
  YS02001596           JUNCTION      0.00   317.97     0  02:18           0        1.32      -0.007
  YS02001600           JUNCTION      0.00   318.00     0  02:10           0        1.32       0.008
  YS02001601           JUNCTION   1399.62  1717.21     0  02:03        2.36        3.68       0.013
  YS02001602           JUNCTION      0.00   523.93     0  01:53           0        2.23       0.017
  YS02001605           JUNCTION      0.00   523.98     0  01:53           0        2.11       0.024
  YS02001607           JUNCTION      0.00   523.62     0  01:53           0        2.11       0.092
  YS02001610           JUNCTION      0.00   757.74     0  02:04           0        2.36       0.089
  YS02001613           JUNCTION      0.00   533.57     0  01:53           0        1.89       0.093
  YS02001616           JUNCTION      0.00   527.52     0  01:53           0        1.89       0.023
  YS02001619           JUNCTION   1367.79  1367.79     0  02:04        2.75        4.38      -0.000
  YS02001622           JUNCTION      0.00   962.26     0  02:02           0        4.12       0.000
  YS02001625           JUNCTION      0.00  1351.41     0  02:05           0        4.32       0.202
  YS02001629           JUNCTION      0.00   941.04     0  01:53           0        3.41       0.024
  YS02001633           JUNCTION   1051.58  1393.16     0  01:56        1.73        4.87       0.071
  YS02001641           JUNCTION      0.00  1392.68     0  01:56           0        4.61       0.060
  YS02001644           JUNCTION    940.65  1824.24     0  01:56         1.5         6.1       0.052
  YS02001647           JUNCTION      0.00  1823.94     0  01:56           0        5.67       0.006
  YS02001649           JUNCTION      0.00  2096.49     0  01:56           0        7.05       0.007
  YS02001652           JUNCTION      0.00   932.06     0  02:02           0        1.37      -0.072
  YS02001655           JUNCTION      0.15   932.47     0  02:02     0.00443        1.37      -0.015
  YS02001658           JUNCTION      0.00   931.87     0  02:02           0        1.37      -0.015
  YS02001661           JUNCTION      0.00   930.63     0  02:02           0        1.37       0.013
  YS02001664           JUNCTION    925.56   925.56     0  02:02        1.37        1.37      -0.010
  YS02001745           JUNCTION    594.72   594.72     0  02:02       0.827       0.827       0.195
  YS02001748           JUNCTION      0.04   641.52     0  01:59      0.0013       0.827      -0.294
  YS02001751           JUNCTION      0.01   620.57     0  02:01    0.000317       0.833       0.108
  YS02001754           JUNCTION      0.26   620.84     0  02:01     0.00749       0.846      -0.154
  YS02001757           JUNCTION      0.00  3552.01     0  02:01           0        10.6       0.048
  YS02001759           JUNCTION    824.80  1452.42     0  02:01        1.14         2.7      -0.004
  YS02001762           JUNCTION      0.00   799.54     0  01:58           0        1.56       0.014
  YS02001765           JUNCTION      0.00   801.09     0  01:59           0        1.56       0.016
  YS02001767           JUNCTION      0.54   802.60     0  01:59      0.0154        1.56       0.015
  YS02001770           JUNCTION   1161.41  1161.41     0  02:02        1.74        1.79       0.012
  YS02001774           JUNCTION      0.00   562.20     0  02:02           0       0.268       0.424
  YS02001779           JUNCTION      0.01   562.49     0  02:02    0.000144       0.222      -0.322
  YS02001783           JUNCTION      0.00  1166.68     0  02:00           0        3.97       0.005
  YS02001784           JUNCTION      1.06  1167.18     0  01:59      0.0305           4       0.012
  YS02001786           JUNCTION      0.06  1167.77     0  02:00     0.00162           4       0.016
  YS02001788           JUNCTION      0.07  1167.79     0  02:00     0.00204           4       0.008
  YS02001790           JUNCTION      0.15  1175.25     0  02:01     0.00446        4.01       0.020
  YS02001791           JUNCTION      0.00  1302.85     0  02:00           0        4.01      -0.026
  YS02001793           JUNCTION      0.00  1255.12     0  02:04           0        4.01       0.008
  YS02001882           JUNCTION      0.00    72.87     0  01:55           0      0.0128       5.928
  YS02001884           JUNCTION      0.00    65.93     0  01:55           0      0.0484       5.168
  YS02001887           JUNCTION    896.50   896.74     0  02:01        1.19        1.23       0.361
  YS02001890           JUNCTION      0.00   897.07     0  02:01           0        1.19       0.416
  YS02001895           JUNCTION      0.00   518.81     0  02:05           0        1.06       0.148
  YS02001898           JUNCTION      0.00   518.59     0  02:05           0        1.05       0.010
  YS02001901           JUNCTION      0.00   517.27     0  02:02           0        1.06       0.301
  YS02001904           JUNCTION      0.00   517.32     0  02:02           0        1.06       0.243
  YS02001907           JUNCTION      0.00  2057.01     0  02:02           0        3.67       0.474
  YS02001910           JUNCTION      0.00  1528.29     0  02:02           0        2.61       0.268
  YS02001915           JUNCTION   1017.20  1528.30     0  02:02        1.66        2.65       0.058
  YS02001918           JUNCTION      0.00   511.32     0  02:02           0        1.03       0.003
  YS02001920           JUNCTION      2.87   510.89     0  02:02      0.0827        1.01       0.099
  YS02001923           JUNCTION      0.04   506.98     0  02:02     0.00109        0.91      -0.090
  YS02001926           JUNCTION      0.05   625.46     0  01:57      0.0015       0.889      -0.040
  YS02001929           JUNCTION    492.35   492.35     0  02:03       0.872       0.875      -0.020
  YS02006553           JUNCTION      0.00   798.12     0  02:19           0        2.28       0.513
  YS02006556           JUNCTION      0.00   797.66     0  02:19           0        2.29       0.355
  YS02006558           JUNCTION   1192.97  1192.97     0  02:02        1.75           4       0.090
  YS02006561           JUNCTION      0.00  1179.44     0  01:56           0        3.97       0.001
  YS02163301           JUNCTION      0.00   928.31     0  01:56           0        3.39       0.045
  YS02163601           JUNCTION      0.11  1393.22     0  01:56     0.00317        4.61       0.105
  YS02164001           JUNCTION      0.00  1393.15     0  01:56           0        4.61       0.054
  CC-1                 OUTFALL       0.00   683.00     0  00:00           0        4.11       0.000
  CC-2                 OUTFALL       0.00   683.00     0  00:00           0        3.53       0.000
  JK-1                 OUTFALL       0.00  1000.00     0  00:00           0        1.78       0.000
  JK-2                 OUTFALL       0.00  1000.00     0  00:00           0        1.08       0.000
  WSC                  OUTFALL       0.00   555.22     0  02:42           0        5.17       0.000
  CC-storage           STORAGE       0.00  3550.63     0  02:01           0        12.8      -0.245
  JK-storage           STORAGE       0.00  1261.35     0  02:10           0        4.16      -0.417
  
  
  **********************
  Node Surcharge Summary
  **********************
  
  Surcharging occurs when water rises above the top of the highest conduit.
  ---------------------------------------------------------------------
                                               Max. Height   Min. Depth
                                   Hours       Above Crown    Below Rim
  Node                 Type      Surcharged         Meters       Meters
  ---------------------------------------------------------------------
  WS02006109           JUNCTION        2.03          0.519        1.301
  WS02006110           JUNCTION        0.68          0.641        1.209
  WS02006112           JUNCTION        0.66          0.067        1.613
  WS02006228           JUNCTION        2.02          0.417        1.783
  WS02006229           JUNCTION        2.03          0.391        2.059
  WS02006230           JUNCTION        0.68          0.265        1.305
  WS02006231           JUNCTION        0.77          0.508        1.022
  WS02006232           JUNCTION        2.07          0.772        0.708
  WS02006234           JUNCTION        1.04          0.795        0.445
  WS02006235           JUNCTION        2.00          0.855        0.435
  WS02006238           JUNCTION        2.04          0.874        0.556
  WS02006239           JUNCTION        2.00          0.805        0.485
  WS02006240           JUNCTION        2.00          0.813        0.577
  WS02006242           JUNCTION        2.04          0.820        0.000
  WS02006243           JUNCTION        1.99          0.698        0.072
  WS02006245           JUNCTION        1.99          0.606        0.244
  WS02006247           JUNCTION        2.00          0.552        0.208
  WS02006248           JUNCTION        1.99          0.380        0.000
  WS02006249           JUNCTION        1.99          0.390        0.000
  WS02006251           JUNCTION        0.81          0.313        0.867
  WS02006252           JUNCTION        2.30          1.100        0.000
  WS02006256           JUNCTION        7.07          2.050        0.000
  YS02001580           JUNCTION        0.63          0.450        0.000
  YS02001583           JUNCTION        0.63          0.421        0.079
  YS02001586           JUNCTION        0.75          0.510        0.000
  YS02001590           JUNCTION        0.82          0.750        0.000
  YS02001593           JUNCTION        0.82          0.791        0.049
  YS02001596           JUNCTION        0.93          1.070        0.000
  YS02001600           JUNCTION        1.08          1.190        0.000
  YS02001601           JUNCTION        1.42          1.440        0.000
  YS02001602           JUNCTION        1.32          1.270        0.000
  YS02001605           JUNCTION        1.27          1.180        0.000
  YS02001607           JUNCTION        0.80          0.680        0.000
  YS02001610           JUNCTION        0.82          0.680        0.000
  YS02001613           JUNCTION        0.79          0.700        0.000
  YS02001616           JUNCTION        0.75          0.610        0.000
  YS02001619           JUNCTION        0.74          0.610        0.000
  YS02001622           JUNCTION        0.74          0.620        0.000
  YS02001625           JUNCTION        0.91          0.780        0.000
  YS02001629           JUNCTION        0.69          0.470        0.000
  YS02001633           JUNCTION        0.93          1.043        0.017
  YS02001641           JUNCTION        0.88          1.055        0.045
  YS02001644           JUNCTION        0.84          0.920        0.000
  YS02001647           JUNCTION        0.64          0.804        0.096
  YS02001649           JUNCTION        0.75          1.050        0.000
  YS02001652           JUNCTION        0.55          0.923        0.207
  YS02001655           JUNCTION        0.39          0.976        0.224
  YS02001658           JUNCTION        0.22          0.987        0.313
  YS02001661           JUNCTION        0.05          0.455        0.935
  YS02001748           JUNCTION        0.15          0.879        0.311
  YS02001751           JUNCTION        0.28          0.905        0.295
  YS02001754           JUNCTION        0.45          0.861        0.289
  YS02001757           JUNCTION        0.82          1.092        0.118
  YS02001759           JUNCTION        0.72          1.065        0.145
  YS02001762           JUNCTION        0.68          1.102        0.048
  YS02001765           JUNCTION        0.64          1.080        0.020
  YS02001767           JUNCTION        0.60          1.030        0.000
  YS02001770           JUNCTION        0.57          0.920        0.000
  YS02001774           JUNCTION        0.67          1.021        0.029
  YS02001779           JUNCTION        0.45          0.680        0.000
  YS02001783           JUNCTION        0.55          0.773        0.827
  YS02001784           JUNCTION        0.53          0.503        0.987
  YS02001786           JUNCTION        0.42          0.330        1.100
  YS02001882           JUNCTION        0.50          0.830        0.000
  YS02001884           JUNCTION        0.51          0.859        0.011
  YS02001887           JUNCTION        0.54          0.882        0.068
  YS02001890           JUNCTION        0.55          0.760        0.000
  YS02001895           JUNCTION        0.49          0.662        0.088
  YS02001898           JUNCTION        0.48          0.690        0.050
  YS02001901           JUNCTION        0.53          0.733        0.137
  YS02001904           JUNCTION        0.52          0.652        0.198
  YS02001907           JUNCTION        0.75          0.950        0.000
  YS02001910           JUNCTION        0.58          1.100        0.000
  YS02001915           JUNCTION        0.49          1.000        0.000
  YS02001918           JUNCTION        0.41          0.810        0.000
  YS02001920           JUNCTION        0.43          1.140        0.000
  YS02001923           JUNCTION        0.13          0.820        0.000
  YS02001926           JUNCTION        0.15          0.900        0.000
  YS02001929           JUNCTION        0.01          0.780        0.000
  YS02006553           JUNCTION        0.77          1.063        0.127
  YS02006556           JUNCTION        0.67          1.083        0.267
  YS02006558           JUNCTION        0.66          1.091        0.309
  YS02006561           JUNCTION        0.38          0.605        0.545
  YS02163301           JUNCTION        0.91          0.962        0.068
  YS02163601           JUNCTION        0.96          1.080        0.000
  YS02164001           JUNCTION        0.88          1.085        0.015
  
  
  *********************
  Node Flooding Summary
  *********************
  
  Flooding refers to all water that overflows a node, whether it ponds or not.
  --------------------------------------------------------------------------
                                                             Total   Maximum
                                 Maximum   Time of Max       Flood    Ponded
                        Hours       Rate    Occurrence      Volume     Depth
  Node                 Flooded       LPS   days hr:min    10^6 ltr    Meters
  --------------------------------------------------------------------------
  WS02006242              0.01      1.78      0  03:06       0.000     0.000
  WS02006248              0.01     17.01      0  02:05       0.000     0.000
  WS02006249              0.79     97.26      0  03:06       0.193     0.000
  WS02006252              0.01    245.63      0  00:00       0.000     0.000
  WS02006256              1.17    293.19      0  00:00       0.402     0.000
  YS02001580              0.01    106.72      0  01:54       0.000     0.000
  YS02001586              0.51    450.44      0  02:04       0.396     0.000
  YS02001590              0.01      8.29      0  01:54       0.000     0.000
  YS02001596              0.01      0.33      0  01:54       0.000     0.000
  YS02001600              0.01      2.33      0  01:54       0.000     0.000
  YS02001601              0.68   1319.29      0  02:03       1.455     0.000
  YS02001602              0.57     62.41      0  02:08       0.115     0.000
  YS02001605              0.01      2.95      0  01:54       0.000     0.000
  YS02001607              0.01     11.16      0  01:54       0.000     0.000
  YS02001610              0.50    757.49      0  02:04       0.728     0.000
  YS02001613              0.01     15.00      0  01:54       0.000     0.000
  YS02001616              0.01     13.33      0  01:54       0.000     0.000
  YS02001619              0.01     16.71      0  01:54       0.000     0.000
  YS02001622              0.01      4.91      0  01:54       0.000     0.000
  YS02001625              0.46   1351.12      0  02:05       1.162     0.000
  YS02001629              0.13    274.33      0  02:00       0.067     0.000
  YS02001644              0.20    999.06      0  02:02       0.418     0.000
  YS02001649              0.01      5.76      0  01:59       0.000     0.000
  YS02001770              0.01     34.41      0  01:57       0.000     0.000
  YS02001779              0.17    562.24      0  02:02       0.204     0.000
  YS02001882              0.01     28.19      0  01:55       0.000     0.000
  YS02001890              0.19    380.93      0  02:01       0.125     0.000
  YS02001907              0.36   2056.71      0  02:02       1.383     0.000
  YS02001910              0.01      0.31      0  01:57       0.000     0.000
  YS02001915              0.01     59.21      0  01:55       0.000     0.000
  YS02001918              0.01    222.00      0  01:57       0.003     0.000
  YS02001920              0.01     51.13      0  01:57       0.000     0.000
  YS02001923              0.01    445.68      0  01:57       0.002     0.000
  YS02001926              0.01    532.72      0  01:57       0.001     0.000
  YS02001929              0.01    149.76      0  01:57       0.000     0.000
  YS02163601              0.01     17.88      0  02:12       0.000     0.000
  
  
  **********************
  Storage Volume Summary
  **********************
  
  ------------------------------------------------------------------------------------------------
                         Average    Avg   Evap  Exfil     Maximum    Max    Time of Max    Maximum
                          Volume   Pcnt   Pcnt   Pcnt      Volume   Pcnt     Occurrence    Outflow
  Storage Unit           1000 m³   Full   Loss   Loss     1000 m³   Full    days hr:min        LPS
  ------------------------------------------------------------------------------------------------
  CC-storage               2.312   36.1    0.0    0.0       4.500   70.2       0  02:30    1783.53
  JK-storage               0.106   36.3    0.0    0.0       0.212   72.8       0  02:05    2300.00
  
  
  ***********************
  Outfall Loading Summary
  ***********************
  
  -----------------------------------------------------------
                         Flow       Avg       Max       Total
                         Freq      Flow      Flow      Volume
  Outfall Node           Pcnt       LPS       LPS    10^6 ltr
  -----------------------------------------------------------
  CC-1                  32.61    683.00    683.00       4.105
  CC-2                  27.64    683.00    683.00       3.526
  JK-1                   8.65   1000.00   1000.00       1.785
  JK-2                   6.63   1000.00   1000.00       1.084
  WSC                   99.95    247.34    555.22       5.168
  -----------------------------------------------------------
  System                35.10   3613.34   3904.54      15.667
  
  
  ********************
  Link Flow Summary
  ********************
  
  -----------------------------------------------------------------------------
                                 Maximum  Time of Max   Maximum    Max/    Max/
                                  |Flow|   Occurrence   |Veloc|    Full    Full
  Link                 Type          LPS  days hr:min     m/sec    Flow   Depth
  -----------------------------------------------------------------------------
  1                    CONDUIT    555.22     0  02:42      2.83    0.19    0.30
  WS02003060WS02003069 CONDUIT    553.30     0  02:39      1.64    0.22    0.34
  WS02003066WSF200     CONDUIT    536.75     0  02:38      2.85    0.09    0.22
  WS02003067WS02003066 CONDUIT    536.73     0  02:38      1.21    0.17    0.42
  WS02003069WS02003072 CONDUIT    553.48     0  02:40      1.37    0.27    0.39
  WS02003072WS02003073 CONDUIT    553.42     0  02:41      1.44    1.20    0.37
  WS02004401WS02004402 CONDUIT    538.16     0  02:35      0.98    0.65    0.86
  WS02004402WS02004403 CONDUIT    538.00     0  02:45      0.97    0.77    0.88
  WS02004403WS02004404 CONDUIT    537.59     0  02:36      0.92    0.39    0.93
  WS02004404WS02004405 CONDUIT    537.71     0  02:36      1.08    5.27    0.96
  WS02004405WS02004406 CONDUIT    537.77     0  02:45      0.99    1.06    0.96
  WS02004406WS02004407 CONDUIT    537.45     0  02:36      1.04    0.24    0.63
  WS02004407WS02004409 CONDUIT    537.25     0  02:36      1.48    0.19    0.48
  WS02004409WS02004410 CONDUIT    537.06     0  02:37      0.96    0.69    0.67
  WS02004410WS02004411 CONDUIT    536.95     0  02:37      0.94    0.73    0.69
  WS02004411WS02004412 CONDUIT    536.91     0  02:37      0.92    0.76    0.69
  WS02004412WS02004413 CONDUIT    536.84     0  02:39      0.82    0.36    0.78
  WS02004413WS02003067 CONDUIT    536.70     0  02:38      1.11    0.23    0.59
  WS02006109WS02006110 CONDUIT    568.06     0  03:06      1.13    1.09    1.00
  WS02006110WS02006113 CONDUIT    578.56     0  03:06      1.40    0.53    0.79
  WS02006111WS02006112 CONDUIT    543.93     0  03:08      1.81    0.26    0.67
  WS02006112WS02006115 CONDUIT    549.00     0  02:41      0.79    0.32    0.87
  WS02006113WS02006111 CONDUIT    561.82     0  02:53      2.47    0.67    0.46
  WS02006115WS02006116 CONDUIT    540.11     0  02:41      0.97    0.69    0.76
  WS02006116WS02004401 CONDUIT    538.67     0  02:44      0.98    0.74    0.84
  WS02006228WS02006109 CONDUIT    564.00     0  03:06      1.12    2.46    1.00
  WS02006229WS02006228 CONDUIT    559.63     0  03:06      1.14    1.85    1.00
  WS02006230WS02006229 CONDUIT    556.71     0  02:15      1.45   12.39    1.00
  WS02006231WS02006230 CONDUIT    589.29     0  03:48      1.60    8.94    1.00
  WS02006232WS02006231 CONDUIT    596.64     0  03:48      1.56    1.25    1.00
  WS02006234WS02006232 CONDUIT    593.81     0  03:48      1.54    1.20    1.00
  WS02006235WS02006234 CONDUIT    579.02     0  03:48      1.50    6.11    1.00
  WS02006238WS02006235 CONDUIT    429.55     0  03:09      1.45    0.96    1.00
  WS02006239WS02006238 CONDUIT    427.30     0  03:45      1.17    1.37    1.00
  WS02006240WS02006239 CONDUIT    426.56     0  03:45      1.28    1.34    1.00
  WS02006242WS02006240 CONDUIT    426.19     0  03:45      1.18    1.69    1.00
  WS02006243WS02006242 CONDUIT    425.99     0  03:45      1.42    0.91    1.00
  WS02006245WS02006243 CONDUIT    427.01     0  03:45      1.45    1.26    1.00
  WS02006247WS02006245 CONDUIT    427.75     0  03:45      1.43    3.39    1.00
  WS02006248WS02006247 CONDUIT    427.03     0  03:45      1.44    0.93    1.00
  WS02006249WS02006248 CONDUIT    428.85     0  03:45      1.39    2.35    1.00
  WS02006251WS02006249 CONDUIT    463.17     0  01:10      2.14    1.34    1.00
  WS02006252WS02006251 CONDUIT    406.81     0  03:48     27.28    1.49    1.00
  WS02006256WS02006235 CONDUIT    288.91     0  00:00      4.23    3.06    1.00
  WSF200WS02003060     CONDUIT    536.89     0  02:40      2.06    0.12    0.28
  YS02001580YS02001583 CONDUIT    125.67     0  01:54      0.70    0.49    1.00
  YS02001583YS02001586 CONDUIT    171.06     0  01:54      0.72    0.26    1.00
  YS02001586YS02001590 CONDUIT    318.60     0  02:05      1.25    0.56    1.00
  YS02001590YS02001593 CONDUIT    319.65     0  02:05      1.13    2.01    1.00
  YS02001593YS02001596 CONDUIT    317.97     0  02:18      1.75    0.50    1.00
  YS02001596YS02001600 CONDUIT    318.00     0  02:10      1.24    0.62    1.00
  YS02001600YS02001601 CONDUIT    318.04     0  02:13      1.12    0.55    1.00
  YS02001601YS02001602 CONDUIT    523.93     0  01:53      1.85    1.89    1.00
  YS02001602YS02001605 CONDUIT    523.98     0  01:53      1.85   11.09    1.00
  YS02001605YS02001607 CONDUIT    523.62     0  01:53      1.85    2.87    1.00
  YS02001607YS02001610 CONDUIT    530.86     0  01:53      0.68    0.50    1.00
  YS02001610YS02001613 CONDUIT    533.57     0  01:53      0.68    0.62    1.00
  YS02001613YS02001616 CONDUIT    527.52     0  01:53      0.68    0.45    1.00
  YS02001616YS02001619 CONDUIT    506.67     0  01:53      0.67    0.88    1.00
  YS02001619YS02001622 CONDUIT    962.26     0  02:02      1.23    1.42    1.00
  YS02001622YS02001625 CONDUIT    962.42     0  02:02      1.23    0.51    1.00
  YS02001625YS02001629 CONDUIT    941.04     0  01:53      1.20    0.45    1.00
  YS02001629YS02163301 CONDUIT    928.31     0  01:56      1.18    1.14    1.00
  YS02001633YS02163601 CONDUIT   1393.11     0  01:56      1.77    1.46    1.00
  YS02001641YS02001644 CONDUIT   1393.02     0  01:56      1.77    4.50    1.00
  YS02001644YS02001647 CONDUIT   1823.94     0  01:56      2.32    1.07    1.00
  YS02001647YS02001649 CONDUIT   1833.76     0  01:56      2.37    0.97    1.00
  YS02001649YS02001757 CONDUIT   2088.11     0  01:56      2.66    1.27    1.00
  YS02001652YS02001649 CONDUIT    932.72     0  02:02      1.19    0.46    1.00
  YS02001655YS02001652 CONDUIT    932.06     0  02:02      1.35    0.45    1.00
  YS02001658YS02001655 CONDUIT    932.32     0  02:02      1.93    0.40    1.00
  YS02001661YS02001658 CONDUIT    931.87     0  02:02      2.36    0.37    1.00
  YS02001664YS02001661 CONDUIT    930.63     0  02:02      2.38    0.29    0.86
  YS02001745YS02001748 CONDUIT    641.48     0  01:59      2.25    0.25    0.95
  YS02001748YS02001751 CONDUIT    620.55     0  02:01      1.75    0.31    1.00
  YS02001751YS02001754 CONDUIT    620.58     0  02:01      1.46    0.30    1.00
  YS02001754YS02001757 CONDUIT    620.82     0  02:01      0.79    0.25    1.00
  YS02001757CaochengTiaoxuchi CONDUIT   3550.63     0  02:01      4.58    1.54    1.00
  YS02001759YS02001757 CONDUIT   1452.80     0  02:01      1.85    1.03    1.00
  YS02001762YS02001759 CONDUIT    803.15     0  01:59      1.02    0.93    1.00
  YS02001765YS02001762 CONDUIT    799.54     0  01:58      1.02    0.75    1.00
  YS02001767YS02001765 CONDUIT    801.09     0  01:59      1.02    1.01    1.00
  YS02001770YS02001767 CONDUIT    802.07     0  01:59      1.02    3.18    1.00
  YS02001774YS02001770 CONDUIT    562.20     0  02:02      0.72    0.36    1.00
  YS02001779YS02001774 CONDUIT    562.49     0  02:02      0.72    0.28    1.00
  YS02001783YS02001784 CONDUIT   1166.12     0  01:59      2.32    1.61    1.00
  YS02001784YS02001785 CONDUIT   1167.71     0  02:00      2.32    2.72    1.00
  YS02001786YS02001788 CONDUIT   1167.72     0  02:00      2.48    2.25    0.89
  YS02001788YS02001790 CONDUIT   1175.10     0  02:01      2.71    0.87    0.85
  YS02001790YS02001791 CONDUIT   1302.85     0  02:00      3.45    1.42    0.71
  YS02001791YS02001793 CONDUIT   1255.12     0  02:04      6.75    0.54    0.45
  YS02001793JiankangQianchi CONDUIT   1261.35     0  02:10      2.53    0.10    0.65
  YS02001882YS02001884 CONDUIT     72.87     0  01:55      0.12    0.08    1.00
  YS02001884YS02001887 CONDUIT     65.93     0  01:55      0.09    0.09    1.00
  YS02001887YS02001890 CONDUIT    897.07     0  02:01      1.14    1.54    1.00
  YS02001890YS02001895 CONDUIT    518.81     0  02:05      0.66    0.24    1.00
  YS02001895YS02001898 CONDUIT    518.59     0  02:05      0.66    0.90    1.00
  YS02001898YS02001901 CONDUIT    517.27     0  02:02      0.66    0.33    1.00
  YS02001901YS02001904 CONDUIT    517.32     0  02:02      0.66    0.80    1.00
  YS02001904YS02001907 CONDUIT    520.29     0  02:05      0.66    0.18    1.00
  YS02001907YS02006553 CONDUIT    798.12     0  02:19      0.89    0.94    1.00
  YS02001910YS02001907 CONDUIT   1528.36     0  02:02      1.95    0.86    1.00
  YS02001915YS02001910 CONDUIT   1528.29     0  02:02      1.95    0.76    1.00
  YS02001918YS02001915 CONDUIT    511.58     0  02:02      0.65    0.28    1.00
  YS02001920YS02001918 CONDUIT    511.32     0  02:02      0.65    0.49    1.00
  YS02001923YS02001920 CONDUIT    508.02     0  02:02      0.69    0.23    1.00
  YS02001926YS02001923 CONDUIT    506.94     0  02:02      0.96    0.72    1.00
  YS02001929YS02001926 CONDUIT    506.11     0  02:02      1.13    0.24    1.00
  YS02006553YS02006556 CONDUIT    797.66     0  02:19      1.02    0.68    1.00
  YS02006556YS02006558 CONDUIT    799.08     0  02:19      1.02    0.63    1.00
  YS02006558YS02006561 CONDUIT   1179.44     0  01:56      4.17    2.61    1.00
  YS02006561YS02001783 CONDUIT   1166.68     0  02:00      2.32    0.60    1.00
  YS02163301YS02001633 CONDUIT    927.88     0  01:56      1.18    0.87    1.00
  YS02163601YS02164001 CONDUIT   1393.15     0  01:56      1.77    1.23    1.00
  YS02164001YS02001641 CONDUIT   1392.68     0  01:56      1.77    1.90    1.00
  CC-R1                PUMP       683.00     0  00:00              1.00
  CC-R2                PUMP       683.00     0  00:00              1.00
  CC-S1                PUMP       200.00     0  00:00              1.00
  CC-S2                PUMP       200.00     0  00:00              1.00
  JK-R1                PUMP      1000.00     0  00:00              1.00
  JK-R2                PUMP      1000.00     0  00:00              1.00
  JK-S                 PUMP       300.00     0  00:00              1.00
  
  
  ***************************
  Flow Classification Summary
  ***************************
  
  -------------------------------------------------------------------------------------
                      Adjusted    ---------- Fraction of Time in Flow Class ---------- 
                       /Actual         Up    Down  Sub   Sup   Up    Down  Norm  Inlet 
  Conduit               Length    Dry  Dry   Dry   Crit  Crit  Crit  Crit  Ltd   Ctrl  
  -------------------------------------------------------------------------------------
  1                       1.00   0.00  0.00  0.00  0.00  1.00  0.00  0.00  0.44  0.00
  WS02003060WS02003069    1.00   0.00  0.00  0.00  0.98  0.02  0.00  0.00  0.67  0.00
  WS02003066WSF200        1.00   0.13  0.00  0.00  0.00  0.87  0.00  0.00  0.77  0.00
  WS02003067WS02003066    1.00   0.10  0.02  0.00  0.88  0.00  0.00  0.00  0.00  0.00
  WS02003069WS02003072    1.00   0.00  0.00  0.00  0.99  0.01  0.00  0.00  0.72  0.00
  WS02003072WS02003073    1.00   0.00  0.00  0.00  0.00  0.00  0.00  1.00  0.00  0.00
  WS02004401WS02004402    1.00   0.02  0.00  0.00  0.98  0.00  0.00  0.00  0.00  0.00
  WS02004402WS02004403    1.00   0.02  0.00  0.00  0.97  0.00  0.00  0.00  0.00  0.00
  WS02004403WS02004404    1.00   0.00  0.03  0.00  0.97  0.00  0.00  0.00  0.00  0.00
  WS02004404WS02004405    1.00   0.00  0.00  0.00  1.00  0.00  0.00  0.00  0.00  0.00
  WS02004405WS02004406    1.00   0.00  0.00  0.00  1.00  0.00  0.00  0.00  0.00  0.00
  WS02004406WS02004407    1.00   0.00  0.05  0.00  0.95  0.00  0.00  0.00  0.00  0.00
  WS02004407WS02004409    1.00   0.05  0.00  0.00  0.94  0.01  0.00  0.00  0.95  0.00
  WS02004409WS02004410    1.00   0.05  0.00  0.00  0.95  0.00  0.00  0.00  0.03  0.00
  WS02004410WS02004411    1.00   0.05  0.00  0.00  0.95  0.00  0.00  0.00  0.01  0.00
  WS02004411WS02004412    1.00   0.05  0.00  0.00  0.95  0.00  0.00  0.00  0.00  0.00
  WS02004412WS02004413    1.00   0.05  0.00  0.00  0.94  0.00  0.00  0.00  0.01  0.00
  WS02004413WS02003067    1.00   0.06  0.04  0.00  0.00  0.00  0.90  0.00  0.00  0.00
  WS02006109WS02006110    1.00   0.00  0.01  0.00  0.98  0.00  0.01  0.00  0.00  0.00
  WS02006110WS02006113    1.00   0.01  0.01  0.00  0.98  0.00  0.00  0.00  0.00  0.00
  WS02006111WS02006112    1.00   0.02  0.00  0.00  0.98  0.00  0.00  0.00  0.98  0.00
  WS02006112WS02006115    1.00   0.02  0.00  0.00  0.97  0.00  0.00  0.00  0.00  0.00
  WS02006113WS02006111    1.00   0.02  0.00  0.00  0.00  0.98  0.00  0.00  0.13  0.00
  WS02006115WS02006116    1.00   0.02  0.00  0.00  0.97  0.00  0.00  0.01  0.00  0.00
  WS02006116WS02004401    1.00   0.02  0.00  0.00  0.98  0.00  0.00  0.00  0.00  0.00
  WS02006228WS02006109    1.00   0.00  0.00  0.00  1.00  0.00  0.00  0.00  0.00  0.00
  WS02006229WS02006228    1.00   0.00  0.00  0.00  0.99  0.00  0.00  0.01  0.00  0.00
  WS02006230WS02006229    1.00   0.00  0.00  0.00  0.99  0.00  0.00  0.01  0.02  0.00
  WS02006231WS02006230    1.00   0.00  0.00  0.00  0.27  0.00  0.72  0.00  0.00  0.00
  WS02006232WS02006231    1.00   0.00  0.00  0.00  0.99  0.00  0.01  0.00  0.00  0.00
  WS02006234WS02006232    1.00   0.00  0.00  0.00  1.00  0.00  0.00  0.00  0.05  0.00
  WS02006235WS02006234    1.00   0.00  0.00  0.00  0.92  0.00  0.08  0.00  0.00  0.00
  WS02006238WS02006235    1.00   0.00  0.00  0.00  1.00  0.00  0.00  0.00  0.00  0.00
  WS02006239WS02006238    1.00   0.00  0.00  0.00  1.00  0.00  0.00  0.00  0.13  0.00
  WS02006240WS02006239    1.00   0.00  0.00  0.00  0.71  0.00  0.00  0.29  0.04  0.00
  WS02006242WS02006240    1.00   0.00  0.00  0.00  0.99  0.00  0.01  0.00  0.00  0.00
  WS02006243WS02006242    1.00   0.00  0.00  0.00  0.99  0.00  0.00  0.01  0.55  0.00
  WS02006245WS02006243    1.00   0.00  0.00  0.00  0.80  0.00  0.00  0.20  0.01  0.00
  WS02006247WS02006245    1.00   0.00  0.00  0.00  0.96  0.00  0.00  0.03  0.00  0.00
  WS02006248WS02006247    1.00   0.00  0.00  0.00  0.98  0.00  0.00  0.02  0.48  0.00
  WS02006249WS02006248    1.00   0.00  0.00  0.00  0.46  0.00  0.54  0.00  0.00  0.00
  WS02006251WS02006249    1.00   0.00  0.00  0.00  0.99  0.01  0.00  0.00  0.55  0.00
  WS02006252WS02006251    1.00   0.00  0.50  0.00  0.10  0.00  0.40  0.00  0.00  0.00
  WS02006256WS02006235    1.00   0.00  0.00  0.00  0.98  0.02  0.00  0.00  0.01  0.00
  WSF200WS02003060        1.00   0.00  0.13  0.00  0.36  0.51  0.00  0.00  0.55  0.00
  YS02001580YS02001583    1.00   0.23  0.57  0.00  0.19  0.00  0.00  0.00  0.66  0.00
  YS02001583YS02001586    1.00   0.42  0.33  0.00  0.25  0.00  0.00  0.00  0.67  0.00
  YS02001586YS02001590    1.00   0.13  0.00  0.00  0.43  0.04  0.00  0.41  0.36  0.00
  YS02001590YS02001593    1.00   0.13  0.01  0.00  0.12  0.00  0.75  0.00  0.00  0.00
  YS02001593YS02001596    1.00   0.14  0.00  0.00  0.13  0.01  0.00  0.72  0.02  0.00
  YS02001596YS02001600    1.00   0.14  0.00  0.00  0.20  0.01  0.00  0.66  0.04  0.00
  YS02001600YS02001601    1.00   0.13  0.01  0.00  0.86  0.00  0.00  0.00  0.61  0.00
  YS02001601YS02001602    1.00   0.13  0.01  0.00  0.86  0.00  0.00  0.00  0.00  0.00
  YS02001602YS02001605    1.00   0.14  0.00  0.00  0.86  0.00  0.00  0.00  0.00  0.00
  YS02001605YS02001607    1.00   0.14  0.00  0.00  0.86  0.00  0.00  0.00  0.00  0.00
  YS02001607YS02001610    1.00   0.13  0.01  0.00  0.86  0.00  0.00  0.00  0.01  0.00
  YS02001610YS02001613    1.00   0.13  0.00  0.00  0.87  0.00  0.00  0.00  0.01  0.00
  YS02001613YS02001616    1.00   0.13  0.00  0.00  0.87  0.00  0.00  0.00  0.00  0.00
  YS02001616YS02001619    1.00   0.13  0.00  0.00  0.87  0.00  0.00  0.00  0.00  0.00
  YS02001619YS02001622    1.00   0.13  0.00  0.00  0.87  0.00  0.00  0.00  0.29  0.00
  YS02001622YS02001625    1.00   0.13  0.00  0.00  0.87  0.00  0.00  0.00  0.05  0.00
  YS02001625YS02001629    1.00   0.13  0.05  0.00  0.16  0.00  0.66  0.00  0.00  0.00
  YS02001629YS02163301    1.00   0.15  0.01  0.00  0.83  0.00  0.00  0.00  0.00  0.00
  YS02001633YS02163601    1.00   0.00  0.01  0.00  0.99  0.00  0.00  0.00  0.15  0.00
  YS02001641YS02001644    1.00   0.00  0.01  0.00  0.99  0.00  0.00  0.00  0.00  0.00
  YS02001644YS02001647    1.00   0.00  0.17  0.00  0.83  0.00  0.00  0.00  0.00  0.00
  YS02001647YS02001649    1.00   0.00  0.17  0.00  0.55  0.27  0.00  0.00  0.55  0.00
  YS02001649YS02001757    1.00   0.00  0.00  0.00  0.79  0.21  0.00  0.00  0.40  0.00
  YS02001652YS02001649    1.00   0.00  0.00  0.00  0.96  0.04  0.00  0.00  0.73  0.00
  YS02001655YS02001652    1.00   0.00  0.00  0.00  0.19  0.01  0.00  0.80  0.06  0.00
  YS02001658YS02001655    1.00   0.00  0.14  0.00  0.66  0.20  0.00  0.00  0.68  0.00
  YS02001661YS02001658    1.00   0.14  0.00  0.00  0.50  0.36  0.00  0.00  0.69  0.00
  YS02001664YS02001661    1.00   0.13  0.00  0.00  0.77  0.10  0.00  0.00  0.85  0.00
  YS02001745YS02001748    1.00   0.00  0.00  0.00  0.10  0.01  0.00  0.90  0.05  0.00
  YS02001748YS02001751    1.00   0.00  0.00  0.00  0.82  0.18  0.00  0.00  0.77  0.00
  YS02001751YS02001754    1.00   0.00  0.00  0.00  0.16  0.01  0.00  0.83  0.03  0.00
  YS02001754YS02001757    1.00   0.00  0.00  0.00  1.00  0.00  0.00  0.00  0.80  0.00
  YS02001757CaochengTiaoxuchi    1.00   0.00  0.00  0.00  0.96  0.04  0.00  0.00  0.71  0.00
  YS02001759YS02001757    1.00   0.00  0.00  0.00  1.00  0.00  0.00  0.00  0.57  0.00
  YS02001762YS02001759    1.00   0.00  0.00  0.00  1.00  0.00  0.00  0.00  0.04  0.00
  YS02001765YS02001762    1.00   0.00  0.00  0.00  1.00  0.00  0.00  0.00  0.66  0.00
  YS02001767YS02001765    1.00   0.00  0.00  0.00  1.00  0.00  0.00  0.00  0.01  0.00
  YS02001770YS02001767    1.00   0.00  0.00  0.00  1.00  0.00  0.00  0.00  0.00  0.00
  YS02001774YS02001770    1.00   0.00  0.13  0.00  0.70  0.00  0.17  0.00  0.03  0.00
  YS02001779YS02001774    1.00   0.00  0.00  0.00  1.00  0.00  0.00  0.00  0.77  0.00
  YS02001783YS02001784    1.00   0.00  0.18  0.00  0.82  0.00  0.00  0.00  0.56  0.00
  YS02001784YS02001785    1.00   0.00  0.00  0.00  1.00  0.00  0.00  0.00  0.17  0.00
  YS02001786YS02001788    1.00   0.00  0.00  0.00  0.80  0.20  0.00  0.00  0.00  0.00
  YS02001788YS02001790    1.00   0.00  0.00  0.00  0.22  0.78  0.00  0.00  0.81  0.00
  YS02001790YS02001791    1.00   0.00  0.00  0.00  0.01  0.99  0.00  0.00  0.16  0.00
  YS02001791YS02001793    1.00   0.00  0.00  0.00  0.00  1.00  0.00  0.00  0.01  0.00
  YS02001793JiankangQianchi    1.00   0.00  0.00  0.00  0.98  0.02  0.00  0.00  0.96  0.00
  YS02001882YS02001884    1.00   0.15  0.01  0.00  0.84  0.00  0.00  0.00  0.00  0.00
  YS02001884YS02001887    1.00   0.06  0.05  0.00  0.89  0.00  0.00  0.00  0.00  0.00
  YS02001887YS02001890    1.00   0.00  0.00  0.00  0.97  0.00  0.03  0.00  0.00  0.00
  YS02001890YS02001895    1.00   0.00  0.16  0.00  0.83  0.00  0.00  0.00  0.00  0.00
  YS02001895YS02001898    1.00   0.17  0.00  0.00  0.81  0.00  0.02  0.00  0.00  0.00
  YS02001898YS02001901    1.00   0.17  0.00  0.00  0.83  0.00  0.00  0.00  0.01  0.00
  YS02001901YS02001904    1.00   0.17  0.00  0.00  0.83  0.00  0.00  0.00  0.00  0.00
  YS02001904YS02001907    1.00   0.00  0.16  0.00  0.83  0.00  0.00  0.00  0.00  0.00
  YS02001907YS02006553    1.00   0.00  0.02  0.00  0.98  0.00  0.00  0.00  0.00  0.00
  YS02001910YS02001907    1.00   0.00  0.00  0.00  0.97  0.00  0.00  0.03  0.12  0.00
  YS02001915YS02001910    1.00   0.00  0.00  0.00  0.97  0.03  0.00  0.00  0.16  0.00
  YS02001918YS02001915    1.00   0.00  0.01  0.00  0.98  0.02  0.00  0.00  0.75  0.00
  YS02001920YS02001918    1.00   0.00  0.01  0.00  0.99  0.00  0.00  0.00  0.00  0.00
  YS02001923YS02001920    1.00   0.00  0.00  0.00  1.00  0.00  0.00  0.00  0.92  0.00
  YS02001926YS02001923    1.00   0.00  0.07  0.00  0.06  0.00  0.86  0.00  0.00  0.00
  YS02001929YS02001926    1.00   0.00  0.13  0.00  0.87  0.00  0.00  0.00  0.82  0.00
  YS02006553YS02006556    1.00   0.01  0.00  0.00  0.99  0.00  0.00  0.00  0.03  0.00
  YS02006556YS02006558    1.00   0.00  0.00  0.00  1.00  0.00  0.00  0.00  0.00  0.00
  YS02006558YS02006561    1.00   0.18  0.00  0.00  0.06  0.76  0.00  0.00  0.18  0.00
  YS02006561YS02001783    1.00   0.18  0.00  0.00  0.09  0.73  0.00  0.00  0.69  0.00
  YS02163301YS02001633    1.00   0.00  0.15  0.00  0.85  0.00  0.00  0.00  0.00  0.00
  YS02163601YS02164001    1.00   0.00  0.08  0.00  0.92  0.00  0.00  0.00  0.00  0.00
  YS02164001YS02001641    1.00   0.01  0.07  0.00  0.92  0.00  0.00  0.00  0.06  0.00
  
  
  *************************
  Conduit Surcharge Summary
  *************************
  
  ----------------------------------------------------------------------------
                                                           Hours        Hours 
                         --------- Hours Full --------   Above Full   Capacity
  Conduit                Both Ends  Upstream  Dnstream   Normal Flow   Limited
  ----------------------------------------------------------------------------
  WS02003072WS02003073        0.01      0.01      0.01      1.05         0.01
  WS02004404WS02004405        0.01      0.01      0.01      3.15         0.01
  WS02004405WS02004406        0.01      0.01      0.01      0.62         0.01
  WS02006109WS02006110        0.68      0.68      2.08      0.76         0.01
  WS02006110WS02006113        0.01      0.01      2.06      0.01         0.01
  WS02006111WS02006112        0.01      0.01      2.33      0.01         0.01
  WS02006112WS02006115        0.01      0.01      0.66      0.01         0.01
  WS02006228WS02006109        2.03      2.08      2.03      2.50         2.03
  WS02006229WS02006228        2.02      2.03      2.02      2.27         2.01
  WS02006230WS02006229        2.15      2.22      2.15      3.73         2.15
  WS02006231WS02006230        0.68      0.68      0.80      3.43         0.01
  WS02006232WS02006231        0.77      0.77      2.07      0.82         0.01
  WS02006234WS02006232        1.98      1.98      2.07      0.80         0.80
  WS02006235WS02006234        1.03      1.04      2.00      3.17         0.01
  WS02006238WS02006235        2.01      2.01      2.07      0.01         0.01
  WS02006239WS02006238        2.03      2.04      2.04      2.09         1.84
  WS02006240WS02006239        1.99      2.01      2.00      2.09         1.78
  WS02006242WS02006240        2.00      2.00      2.07      2.23         0.01
  WS02006243WS02006242        2.00      2.00      2.04      0.01         0.03
  WS02006245WS02006243        1.99      2.00      1.99      1.42         1.38
  WS02006247WS02006245        1.99      2.01      1.99      2.90         1.98
  WS02006248WS02006247        1.99      1.99      2.00      0.01         0.04
  WS02006249WS02006248        1.99      1.99      1.99      2.85         0.01
  WS02006251WS02006249        1.99      1.99      1.99      2.22         1.94
  WS02006252WS02006251        2.28      2.28      2.30      2.28         0.01
  WS02006256WS02006235        3.24      3.28      6.98      1.22         0.01
  YS02001580YS02001583        0.63      0.63      0.67      0.01         0.01
  YS02001583YS02001586        0.63      0.63      0.75      0.01         0.01
  YS02001586YS02001590        0.76      0.76      0.82      0.01         0.01
  YS02001590YS02001593        0.82      0.82      0.84      0.87         0.01
  YS02001593YS02001596        0.83      0.83      0.93      0.01         0.01
  YS02001596YS02001600        0.97      0.97      1.08      0.01         0.01
  YS02001600YS02001601        1.14      1.14      1.42      0.01         0.01
  YS02001601YS02001602        1.32      1.32      1.46      1.08         0.01
  YS02001602YS02001605        1.27      1.27      1.32      2.23         0.01
  YS02001605YS02001607        1.22      1.27      1.22      1.39         1.22
  YS02001607YS02001610        0.80      0.80      0.82      0.01         0.01
  YS02001610YS02001613        0.79      0.79      0.82      0.01         0.01
  YS02001613YS02001616        0.75      0.75      0.79      0.01         0.01
  YS02001616YS02001619        0.74      0.74      0.75      0.01         0.03
  YS02001619YS02001622        0.74      0.74      0.74      0.83         0.71
  YS02001622YS02001625        0.74      0.74      0.91      0.01         0.01
  YS02001625YS02001629        0.69      0.69      0.91      0.01         0.01
  YS02001629YS02163301        0.90      0.90      0.91      0.20         0.19
  YS02001633YS02163601        0.93      0.93      0.96      0.36         0.35
  YS02001641YS02001644        0.84      0.88      0.84      1.49         0.82
  YS02001644YS02001647        0.64      0.64      0.84      0.04         0.01
  YS02001647YS02001649        0.64      0.64      0.75      0.01         0.01
  YS02001649YS02001757        0.75      0.75      0.82      0.08         0.06
  YS02001652YS02001649        0.58      0.58      0.75      0.01         0.01
  YS02001655YS02001652        0.39      0.39      0.55      0.01         0.01
  YS02001658YS02001655        0.22      0.22      0.39      0.01         0.01
  YS02001661YS02001658        0.05      0.05      0.22      0.01         0.01
  YS02001664YS02001661        0.01      0.01      0.10      0.01         0.01
  YS02001745YS02001748        0.01      0.01      0.15      0.01         0.01
  YS02001748YS02001751        0.20      0.20      0.28      0.01         0.01
  YS02001751YS02001754        0.28      0.28      0.45      0.01         0.01
  YS02001754YS02001757        0.50      0.50      0.82      0.01         0.01
  YS02001757CaochengTiaoxuchi        0.73      0.82      1.89      0.39         0.27
  YS02001759YS02001757        0.72      0.72      0.82      0.04         0.05
  YS02001762YS02001759        0.68      0.68      0.72      0.01         0.02
  YS02001765YS02001762        0.64      0.64      0.68      0.01         0.01
  YS02001767YS02001765        0.60      0.60      0.64      0.01         0.02
  YS02001770YS02001767        0.60      0.60      0.60      0.55         0.44
  YS02001774YS02001770        0.57      0.57      0.67      0.01         0.01
  YS02001779YS02001774        0.45      0.45      0.67      0.01         0.01
  YS02001783YS02001784        0.53      0.55      0.53      0.69         0.53
  YS02001784YS02001785        0.42      0.53      0.42      0.91         0.42
  YS02001786YS02001788        0.01      0.42      0.01      0.78         0.01
  YS02001790YS02001791        0.01      0.01      0.01      0.51         0.01
  YS02001793JiankangQianchi        0.01      0.01      6.78      0.01         0.01
  YS02001882YS02001884        0.50      0.50      0.51      0.01         0.01
  YS02001884YS02001887        0.53      0.53      0.54      0.01         0.01
  YS02001887YS02001890        0.55      0.55      0.57      0.14         0.01
  YS02001890YS02001895        0.49      0.49      0.58      0.01         0.01
  YS02001895YS02001898        0.48      0.48      0.49      0.01         0.01
  YS02001898YS02001901        0.49      0.49      0.53      0.01         0.01
  YS02001901YS02001904        0.52      0.52      0.53      0.01         0.01
  YS02001904YS02001907        0.52      0.52      0.77      0.01         0.01
  YS02001907YS02006553        0.93      0.93      0.99      0.01         0.01
  YS02001910YS02001907        0.58      0.58      0.75      0.01         0.01
  YS02001915YS02001910        0.49      0.49      0.58      0.01         0.01
  YS02001918YS02001915        0.41      0.41      0.49      0.01         0.01
  YS02001920YS02001918        0.41      0.41      0.43      0.01         0.01
  YS02001923YS02001920        0.37      0.37      0.43      0.01         0.01
  YS02001926YS02001923        0.13      0.13      0.15      0.01         0.01
  YS02001929YS02001926        0.01      0.01      0.15      0.01         0.01
  YS02006553YS02006556        0.67      0.67      0.77      0.01         0.01
  YS02006556YS02006558        0.72      0.72      0.79      0.01         0.01
  YS02006558YS02006561        0.45      0.66      0.45      0.87         0.45
  YS02006561YS02001783        0.38      0.38      0.55      0.01         0.01
  YS02163301YS02001633        0.91      0.91      0.95      0.01         0.01
  YS02163601YS02164001        0.88      0.88      0.96      0.07         0.01
  YS02164001YS02001641        0.88      0.88      0.88      0.72         0.64
  
  
  ***************
  Pumping Summary
  ***************
  
  ---------------------------------------------------------------------------------------------------------
                                                  Min       Avg       Max     Total     Power    % Time Off
                        Percent   Number of      Flow      Flow      Flow    Volume     Usage    Pump Curve
  Pump                 Utilized   Start-Ups       LPS       LPS       LPS  10^6 ltr     Kw-hr    Low   High
  ---------------------------------------------------------------------------------------------------------
  CC-R1                   20.89          15      0.00    683.00    683.00     4.109     74.85    0.0   35.5
  CC-R2                   17.96          20      0.00    683.00    683.00     3.533     64.73    0.0   32.3
  CC-S1                   36.01          18      0.00    200.00    200.00     2.074     12.36    0.0    0.0
  CC-S2                   30.21          16      0.00    200.00    200.00     1.740     10.22    0.0    0.0
  JK-R1                    6.19           9      0.00   1000.00   1000.00     1.783     18.08    0.0    0.0
  JK-R2                    3.76           8      0.00   1000.00   1000.00     1.084      9.78    0.0    0.0
  JK-S                    14.67          37      0.00    300.00    300.00     1.268     20.94    0.0    0.0
  

  Analysis begun on:  Wed Dec 25 13:04:42 2024
  Analysis ended on:  Wed Dec 25 13:04:44 2024
  Total elapsed time: 00:00:02