
  EPA STORM WATER MANAGEMENT MODEL - VERSION 5.2 (Build 5.2.4)
  PYSWMM TOOLKIT API - VERSION v1.0 (2023-11-27)
  ------------------------------------------------------------

  WARNING 04: minimum elevation drop used for Conduit WS02004404WS02004405
  WARNING 03: negative offset ignored for Link YS02001904YS02001907
  
  ****************
  Analysis Options
  ****************
  Flow Units ............... LPS
  Process Models:
    Rainfall/Runoff ........ YES
    RDII ................... NO
    Snowmelt ............... NO
    Groundwater ............ NO
    Flow Routing ........... YES
    Ponding Allowed ........ NO
    Water Quality .......... NO
  Infiltration Method ...... HORTON
  Flow Routing Method ...... DYNWAVE
  Surcharge Method ......... EXTRAN
  Starting Date ............ 08/28/2015 08:00:00
  Ending Date .............. 08/28/2015 16:00:00
  Antecedent Dry Days ...... 8.0
  Report Time Step ......... 00:01:00
  Wet Time Step ............ 00:01:00
  Dry Time Step ............ 00:01:00
  Routing Time Step ........ 30.00 sec
  Variable Time Step ....... YES
  Maximum Trials ........... 8
  Number of Threads ........ 4
  Head Tolerance ........... 0.001500 m
  
  
  **************************        Volume         Depth
  Runoff Quantity Continuity     hectare-m            mm
  **************************     ---------       -------
  Total Precipitation ......         2.620        78.985
  Evaporation Loss .........         0.000         0.000
  Infiltration Loss ........         0.102         3.081
  Surface Runoff ...........         2.485        74.926
  Final Storage ............         0.033         0.996
  Continuity Error (%) .....        -0.022
  
  
  **************************        Volume        Volume
  Flow Routing Continuity        hectare-m      10^6 ltr
  **************************     ---------     ---------
  Dry Weather Inflow .......         0.025         0.251
  Wet Weather Inflow .......         2.485        24.854
  Groundwater Inflow .......         0.000         0.000
  RDII Inflow ..............         0.000         0.000
  External Inflow ..........         0.083         0.834
  External Outflow .........         1.710        17.101
  Flooding Loss ............         0.951         9.514
  Evaporation Loss .........         0.000         0.000
  Exfiltration Loss ........         0.000         0.000
  Initial Stored Volume ....         0.243         2.431
  Final Stored Volume ......         0.182         1.822
  Continuity Error (%) .....        -0.240
  
  
  *************************
  Highest Continuity Errors
  *************************
  Node YS02001884 (5.06%)
  Node YS02001583 (-4.18%)
  Node WS02006256 (-1.41%)
  
  
  ***************************
  Time-Step Critical Elements
  ***************************
  Link WS02006252WS02006251 (25.96%)
  Link WS02006238WS02006235 (18.43%)
  Link WS02004404WS02004405 (17.82%)
  Link YS02001791YS02001793 (10.68%)
  Link WS02006235WS02006234 (9.54%)
  
  
  ********************************
  Highest Flow Instability Indexes
  ********************************
  Link WS02006113WS02006111 (41)
  Link WS02006238WS02006235 (23)
  Link WS02006111WS02006112 (21)
  Link WS02006256WS02006235 (19)
  Link WS02006252WS02006251 (17)
  
  
  *********************************
  Most Frequent Nonconverging Nodes
  *********************************
  Node CC-1 (12.84%)
  Node CC-2 (12.84%)
  Node JK-1 (12.84%)
  Node JK-2 (12.84%)
  Node WSC (12.84%)
  
  
  *************************
  Routing Time Step Summary
  *************************
  Minimum Time Step           :     0.01 sec
  Average Time Step           :     2.61 sec
  Maximum Time Step           :     7.04 sec
  % of Time in Steady State   :     0.00
  Average Iterations per Step :     3.31
  % of Steps Not Converging   :    12.84
  Time Step Frequencies       :
     30.000 - 13.228 sec      :     0.00 %
     13.228 -  5.833 sec      :    14.16 %
      5.833 -  2.572 sec      :    28.38 %
      2.572 -  1.134 sec      :    26.27 %
      1.134 -  0.500 sec      :    31.19 %
  
  
  ***************************
  Subcatchment Runoff Summary
  ***************************
  
  ------------------------------------------------------------------------------------------------------------------------------
                            Total      Total      Total      Total     Imperv       Perv      Total       Total     Peak  Runoff
                           Precip      Runon       Evap      Infil     Runoff     Runoff     Runoff      Runoff   Runoff   Coeff
  Subcatchment                 mm         mm         mm         mm         mm         mm         mm    10^6 ltr      LPS
  ------------------------------------------------------------------------------------------------------------------------------
  sub60                     78.98       0.00       0.00       1.83      68.31       7.65      75.96        1.00   719.67   0.962
  sub61                     78.98       0.00       0.00       2.66      64.43      10.77      75.20        1.38  1001.39   0.952
  sub62                     78.98       0.00       0.00       1.22      71.38       5.10      76.48        2.10  1404.40   0.968
  sub63                     78.98       0.00       0.00       4.93      55.11      17.98      73.09        1.66  1140.56   0.925
  sub64                     78.98       0.00       0.00       2.49      65.93       9.36      75.30        1.81  1163.72   0.953
  sub65                     78.98       0.00       0.00       2.15      67.47       8.12      75.58        2.08  1305.14   0.957
  sub66                     78.98       0.00       0.00       6.16      55.00      16.75      71.75        3.35  1753.81   0.908
  sub67                     78.98       0.00       0.00       1.17      71.43       5.15      76.58        1.42  1074.80   0.970
  sub68                     78.98       0.00       0.00       2.20      66.74       8.86      75.60        2.08  1444.57   0.957
  sub69                     78.98       0.00       0.00       1.98      67.03       9.87      76.90        2.85  1734.96   0.974
  sub70                     78.98       0.00       0.00       6.70      51.97      20.16      72.12        2.08   987.05   0.913
  sub71                     78.98       0.00       0.00       1.25      71.34       5.07      76.41        2.00  1257.07   0.967
  sub72                     78.98       0.00       0.00       1.12      72.05       4.41      76.47        1.05   614.23   0.968
  
  
  ******************
  Node Depth Summary
  ******************
  
  ---------------------------------------------------------------------------------
                                 Average  Maximum  Maximum  Time of Max    Reported
                                   Depth    Depth      HGL   Occurrence   Max Depth
  Node                 Type       Meters   Meters   Meters  days hr:min      Meters
  ---------------------------------------------------------------------------------
  WS02003060           JUNCTION     0.22     0.38     5.32     0  03:00        0.38
  WS02003066           JUNCTION     0.19     0.30     5.85     0  02:46        0.30
  WS02003067           JUNCTION     0.48     0.70     6.02     0  02:39        0.70
  WS02003069           JUNCTION     0.25     0.43     5.01     0  02:47        0.43
  WS02003072           JUNCTION     0.31     0.50     4.87     0  02:47        0.50
  WS02003073           JUNCTION     0.18     0.30     4.36     0  02:48        0.30
  WS02004401           JUNCTION     0.57     0.85     6.85     0  02:54        0.85
  WS02004402           JUNCTION     0.60     0.88     6.84     0  02:58        0.88
  WS02004403           JUNCTION     0.62     0.89     6.82     0  02:58        0.89
  WS02004404           JUNCTION     0.70     0.96     6.81     0  02:58        0.96
  WS02004405           JUNCTION     0.70     0.96     6.81     0  02:58        0.96
  WS02004406           JUNCTION     0.71     0.96     6.79     0  02:59        0.96
  WS02004407           JUNCTION     0.17     0.30     6.61     0  02:55        0.30
  WS02004409           JUNCTION     0.37     0.67     6.44     0  02:55        0.67
  WS02004410           JUNCTION     0.40     0.68     6.40     0  02:55        0.68
  WS02004411           JUNCTION     0.42     0.69     6.37     0  02:45        0.69
  WS02004412           JUNCTION     0.44     0.70     6.34     0  02:45        0.70
  WS02004413           JUNCTION     0.60     0.86     6.33     0  02:45        0.86
  WS02006109           JUNCTION     0.63     1.11     7.73     0  02:19        0.98
  WS02006110           JUNCTION     0.64     1.12     7.70     0  02:19        0.93
  WS02006111           JUNCTION     0.17     0.29     6.99     0  02:21        0.29
  WS02006112           JUNCTION     0.72     1.06     6.95     0  02:36        1.05
  WS02006113           JUNCTION     0.26     0.46     7.35     0  02:21        0.46
  WS02006115           JUNCTION     0.45     0.75     6.89     0  02:57        0.75
  WS02006116           JUNCTION     0.54     0.83     6.87     0  02:58        0.83
  WS02006228           JUNCTION     0.63     1.11     7.76     0  02:19        1.03
  WS02006229           JUNCTION     0.60     1.14     7.83     0  02:19        1.04
  WS02006230           JUNCTION     0.61     1.29     8.04     0  02:19        1.17
  WS02006231           JUNCTION     0.42     1.05     8.17     0  03:10        0.92
  WS02006232           JUNCTION     0.56     1.50     8.54     0  04:00        1.13
  WS02006234           JUNCTION     0.49     1.69     8.84     0  04:00        1.40
  WS02006235           JUNCTION     0.53     1.73     8.90     0  04:00        1.66
  WS02006238           JUNCTION     0.56     1.77     8.91     0  04:00        1.72
  WS02006239           JUNCTION     0.53     1.72     8.93     0  04:00        1.67
  WS02006240           JUNCTION     0.49     1.61     8.91     0  04:00        1.56
  WS02006242           JUNCTION     0.56     1.55     8.82     0  04:00        1.52
  WS02006243           JUNCTION     0.47     1.32     8.74     0  04:00        1.29
  WS02006245           JUNCTION     0.47     1.25     8.73     0  03:09        1.15
  WS02006247           JUNCTION     0.49     1.22     8.72     0  03:09        1.17
  WS02006248           JUNCTION     0.45     1.10     8.69     0  02:06        1.10
  WS02006249           JUNCTION     0.48     1.09     8.69     0  02:05        1.09
  WS02006251           JUNCTION     0.47     1.40     9.07     0  02:05        1.22
  WS02006252           JUNCTION     0.33     1.50     9.74     0  00:00        0.78
  WS02006256           JUNCTION     1.08     2.35     9.28     0  00:00        2.35
  WSF200               JUNCTION     0.16     0.29     5.52     0  02:58        0.29
  YS02001580           JUNCTION     0.12     1.05     9.59     0  01:59        0.79
  YS02001583           JUNCTION     0.16     1.14     9.64     0  01:59        0.81
  YS02001586           JUNCTION     0.26     1.13     9.30     0  01:59        1.13
  YS02001590           JUNCTION     0.37     1.40     9.26     0  01:59        1.37
  YS02001593           JUNCTION     0.30     1.32     9.18     0  01:59        1.28
  YS02001596           JUNCTION     0.41     1.68     9.10     0  01:59        1.65
  YS02001600           JUNCTION     0.49     1.87     9.00     0  01:59        1.86
  YS02001601           JUNCTION     0.69     2.06     8.90     0  01:58        2.06
  YS02001602           JUNCTION     0.59     1.87     8.77     0  01:58        1.87
  YS02001605           JUNCTION     0.55     1.78     8.68     0  01:59        1.78
  YS02001607           JUNCTION     0.52     1.66     8.50     0  01:59        1.65
  YS02001610           JUNCTION     0.56     1.68     8.48     0  01:59        1.68
  YS02001613           JUNCTION     0.52     1.70     8.54     0  01:59        1.68
  YS02001616           JUNCTION     0.45     1.61     8.52     0  01:59        1.61
  YS02001619           JUNCTION     0.43     1.61     8.54     0  01:59        1.61
  YS02001622           JUNCTION     0.41     1.58     8.49     0  02:17        1.58
  YS02001625           JUNCTION     0.67     1.78     8.38     0  02:03        1.78
  YS02001629           JUNCTION     0.55     1.85     8.40     0  02:05        1.85
  YS02001633           JUNCTION     0.62     2.08     8.53     0  02:06        2.08
  YS02001641           JUNCTION     0.60     2.10     8.54     0  02:06        2.10
  YS02001644           JUNCTION     0.59     1.92     8.35     0  02:06        1.92
  YS02001647           JUNCTION     0.37     1.77     8.38     0  02:12        1.77
  YS02001649           JUNCTION     0.42     2.00     8.39     0  02:12        2.00
  YS02001652           JUNCTION     0.31     1.86     8.46     0  02:12        1.85
  YS02001655           JUNCTION     0.23     1.68     8.53     0  02:12        1.65
  YS02001658           JUNCTION     0.17     1.46     8.60     0  02:13        1.44
  YS02001661           JUNCTION     0.19     1.26     8.67     0  02:13        1.26
  YS02001664           JUNCTION     0.08     0.75     8.67     0  02:12        0.74
  YS02001745           JUNCTION     0.09     0.92     8.44     0  02:12        0.92
  YS02001748           JUNCTION     0.16     1.52     8.60     0  02:08        1.33
  YS02001751           JUNCTION     0.20     1.55     8.43     0  02:08        1.50
  YS02001754           JUNCTION     0.27     1.75     8.35     0  02:13        1.75
  YS02001757           JUNCTION     0.45     2.08     8.34     0  02:13        2.08
  YS02001759           JUNCTION     0.39     2.12     8.48     0  02:13        2.12
  YS02001762           JUNCTION     0.38     2.07     8.47     0  02:13        2.07
  YS02001765           JUNCTION     0.35     2.00     8.45     0  02:13        2.00
  YS02001767           JUNCTION     0.35     1.97     8.46     0  02:13        1.97
  YS02001770           JUNCTION     0.36     1.95     8.44     0  02:10        1.95
  YS02001774           JUNCTION     0.43     2.00     8.42     0  02:12        2.00
  YS02001779           JUNCTION     0.25     1.68     8.37     0  02:04        1.68
  YS02001783           JUNCTION     0.30     1.37     7.51     0  02:04        1.24
  YS02001784           JUNCTION     0.31     1.20     7.26     0  02:04        1.13
  YS02001786           JUNCTION     0.25     0.93     6.96     0  02:04        0.88
  YS02001788           JUNCTION     0.18     0.63     6.60     0  02:11        0.63
  YS02001790           JUNCTION     0.22     0.73     6.37     0  02:10        0.72
  YS02001791           JUNCTION     0.14     0.44     5.91     0  02:08        0.43
  YS02001793           JUNCTION     0.07     0.30     5.13     0  02:09        0.29
  YS02001882           JUNCTION     0.37     1.71     8.43     0  02:06        1.71
  YS02001884           JUNCTION     0.46     1.79     8.41     0  02:13        1.79
  YS02001887           JUNCTION     0.53     1.88     8.42     0  02:13        1.88
  YS02001890           JUNCTION     0.56     1.81     8.32     0  02:04        1.81
  YS02001895           JUNCTION     0.34     1.57     8.32     0  02:04        1.56
  YS02001898           JUNCTION     0.34     1.58     8.32     0  02:04        1.56
  YS02001901           JUNCTION     0.45     1.70     8.31     0  02:04        1.67
  YS02001904           JUNCTION     0.43     1.66     8.29     0  02:04        1.65
  YS02001907           JUNCTION     0.75     1.96     8.25     0  02:04        1.96
  YS02001910           JUNCTION     0.55     2.01     8.51     0  02:13        2.01
  YS02001915           JUNCTION     0.38     2.00     8.72     0  02:13        2.00
  YS02001918           JUNCTION     0.22     1.81     8.88     0  02:05        1.68
  YS02001920           JUNCTION     0.29     2.09     9.10     0  02:05        2.03
  YS02001923           JUNCTION     0.17     2.03     9.29     0  02:05        2.03
  YS02001926           JUNCTION     0.20     1.90     9.35     0  02:05        1.90
  YS02001929           JUNCTION     0.12     1.78     9.47     0  02:04        1.78
  YS02006553           JUNCTION     0.75     2.00     8.29     0  02:06        2.00
  YS02006556           JUNCTION     0.72     2.02     8.33     0  02:06        2.02
  YS02006558           JUNCTION     0.77     2.10     8.37     0  02:13        2.10
  YS02006561           JUNCTION     0.18     1.06     7.72     0  02:04        0.91
  YS02163301           JUNCTION     0.57     1.97     8.49     0  02:06        1.97
  YS02163601           JUNCTION     0.66     2.08     8.48     0  02:06        2.08
  YS02164001           JUNCTION     0.59     2.10     8.56     0  02:06        2.10
  CC-1                 OUTFALL      0.00     0.00     0.00     0  00:00        0.00
  CC-2                 OUTFALL      0.00     0.00     0.00     0  00:00        0.00
  JK-1                 OUTFALL      0.00     0.00     0.00     0  00:00        0.00
  JK-2                 OUTFALL      0.00     0.00     0.00     0  00:00        0.00
  WSC                  OUTFALL      0.17     0.30     0.97     0  02:48        0.30
  CC-storage           STORAGE      0.85     1.67     7.17     0  02:41        1.67
  JK-storage           STORAGE      1.72     4.22     5.02     0  02:09        4.16
  
  
  *******************
  Node Inflow Summary
  *******************
  
  -------------------------------------------------------------------------------------------------
                                  Maximum  Maximum                  Lateral       Total        Flow
                                  Lateral    Total  Time of Max      Inflow      Inflow     Balance
                                   Inflow   Inflow   Occurrence      Volume      Volume       Error
  Node                 Type           LPS      LPS  days hr:min    10^6 ltr    10^6 ltr     Percent
  -------------------------------------------------------------------------------------------------
  WS02003060           JUNCTION     16.53   553.26     0  02:58       0.476        5.09       0.047
  WS02003066           JUNCTION      0.00   536.59     0  02:46           0        4.62       0.031
  WS02003067           JUNCTION      0.00   536.58     0  02:45           0        4.62       0.093
  WS02003069           JUNCTION      0.32   553.45     0  02:47     0.00922         5.1       0.082
  WS02003072           JUNCTION      0.00   553.37     0  02:47           0        5.09       0.143
  WS02003073           JUNCTION      1.82   555.15     0  02:48      0.0524        5.14       0.116
  WS02004401           JUNCTION      0.00   538.54     0  02:54           0        4.73       0.221
  WS02004402           JUNCTION      0.00   538.02     0  02:58           0        4.72       0.225
  WS02004403           JUNCTION      0.00   537.97     0  02:58           0         4.7       0.219
  WS02004404           JUNCTION      0.16   537.75     0  02:54     0.00467         4.7       0.194
  WS02004405           JUNCTION      0.04   537.59     0  02:54      0.0011        4.69       0.259
  WS02004406           JUNCTION      0.00   538.05     0  02:59           0        4.68       0.451
  WS02004407           JUNCTION      0.00   537.27     0  02:55           0        4.66       0.028
  WS02004409           JUNCTION      0.00   537.04     0  02:55           0        4.66       0.063
  WS02004410           JUNCTION      0.00   536.95     0  02:55           0        4.65       0.100
  WS02004411           JUNCTION      0.00   536.74     0  02:55           0        4.65       0.126
  WS02004412           JUNCTION      0.00   536.68     0  02:59           0        4.64       0.167
  WS02004413           JUNCTION      0.00   536.72     0  02:57           0        4.64       0.294
  WS02006109           JUNCTION      1.23   552.77     0  03:11      0.0354        4.77       0.050
  WS02006110           JUNCTION      0.00   553.72     0  03:11           0        4.77       0.143
  WS02006111           JUNCTION      0.00   560.86     0  02:51           0        4.76       0.018
  WS02006112           JUNCTION      0.00   543.22     0  02:57           0        4.76       0.377
  WS02006113           JUNCTION      0.00   565.64     0  02:19           0        4.76       0.041
  WS02006115           JUNCTION      0.00   551.23     0  02:21           0        4.74       0.143
  WS02006116           JUNCTION      0.00   540.12     0  02:58           0        4.73       0.128
  WS02006228           JUNCTION      0.00   550.09     0  03:11           0        4.73       0.015
  WS02006229           JUNCTION      0.00   550.74     0  02:19           0        4.74       0.134
  WS02006230           JUNCTION     10.28   610.93     0  03:09       0.296        4.75       0.119
  WS02006231           JUNCTION      0.00   618.24     0  03:09           0        4.44      -0.151
  WS02006232           JUNCTION      0.00   614.49     0  03:09           0        4.46       0.355
  WS02006234           JUNCTION      0.00   597.00     0  03:09           0        4.44      -0.404
  WS02006235           JUNCTION      0.00   570.72     0  03:09           0        4.53       0.480
  WS02006238           JUNCTION      0.00   422.40     0  02:15           0        3.54      -0.202
  WS02006239           JUNCTION      0.00   421.62     0  02:15           0        3.48      -0.245
  WS02006240           JUNCTION      0.00   419.49     0  02:15           0        3.45      -0.102
  WS02006242           JUNCTION      0.00   419.54     0  03:23           0        3.45       0.076
  WS02006243           JUNCTION      0.00   418.80     0  03:23           0        3.45       0.031
  WS02006245           JUNCTION      0.00   418.72     0  02:15           0        3.47       0.578
  WS02006247           JUNCTION      0.00   418.62     0  03:10           0        3.47      -0.007
  WS02006248           JUNCTION      0.00   419.60     0  03:10           0        3.47       0.090
  WS02006249           JUNCTION      0.00   463.80     0  01:40           0        3.74       0.462
  WS02006251           JUNCTION      0.08   408.77     0  03:09     0.00222        3.75       0.029
  WS02006252           JUNCTION      0.00   400.00     0  00:00           0        3.73      -0.332
  WS02006256           JUNCTION      0.00   300.00     0  00:00           0        1.45      -1.387
  WSF200               JUNCTION      0.00   536.61     0  02:46           0        4.62       0.011
  YS02001580           JUNCTION      0.00    79.33     0  01:59           0     0.00416       0.823
  YS02001583           JUNCTION      0.00   135.55     0  01:59           0      0.0155      -4.015
  YS02001586           JUNCTION    987.05   987.05     0  02:15        2.08         2.1       0.054
  YS02001590           JUNCTION      0.00   318.93     0  02:06           0        1.46      -0.032
  YS02001593           JUNCTION      0.00   318.29     0  02:06           0        1.46      -0.001
  YS02001596           JUNCTION      0.00   318.07     0  02:23           0        1.46      -0.012
  YS02001600           JUNCTION      0.00   318.00     0  02:15           0        1.46       0.011
  YS02001601           JUNCTION   1734.96  2052.44     0  02:14        2.85        4.31       0.016
  YS02001602           JUNCTION      0.00   502.31     0  01:58           0        2.42       0.013
  YS02001605           JUNCTION      0.00   502.55     0  01:58           0        2.29       0.018
  YS02001607           JUNCTION      0.00   502.75     0  01:58           0        2.29       0.088
  YS02001610           JUNCTION      0.00   950.84     0  02:16           0        2.74       0.082
  YS02001613           JUNCTION      0.00   614.75     0  02:16           0        2.16       0.071
  YS02001616           JUNCTION      0.00   614.25     0  02:16           0        2.16       0.015
  YS02001619           JUNCTION   1753.81  1753.81     0  02:15        3.35        5.05      -0.001
  YS02001622           JUNCTION      0.00  1053.51     0  02:16           0        4.58      -0.001
  YS02001625           JUNCTION      0.00  1502.56     0  02:16           0        4.91       0.190
  YS02001629           JUNCTION      0.00   927.98     0  02:03           0        3.72       0.015
  YS02001633           JUNCTION   1305.34  1356.57     0  02:03        2.09        5.39       0.064
  YS02001641           JUNCTION      0.00  1354.21     0  02:03           0        4.98       0.051
  YS02001644           JUNCTION   1163.76  1811.37     0  02:14        1.81        6.79       0.048
  YS02001647           JUNCTION      0.00  1754.30     0  02:03           0        5.94       0.007
  YS02001649           JUNCTION      0.00  2003.06     0  02:03           0        7.61       0.001
  YS02001652           JUNCTION      0.00  1158.63     0  02:13           0        1.66      -0.056
  YS02001655           JUNCTION      0.15  1158.61     0  02:13     0.00443        1.66      -0.040
  YS02001658           JUNCTION      0.00  1158.75     0  02:13           0        1.66      -0.012
  YS02001661           JUNCTION      0.00  1157.74     0  02:13           0        1.66       0.017
  YS02001664           JUNCTION   1140.56  1140.56     0  02:13        1.66        1.66      -0.007
  YS02001745           JUNCTION    719.67   719.67     0  02:13       0.998       0.998       0.136
  YS02001748           JUNCTION      0.04   729.50     0  02:13      0.0013       0.998      -0.202
  YS02001751           JUNCTION      0.01   729.92     0  02:13    0.000317           1       0.011
  YS02001754           JUNCTION      0.26   731.01     0  02:13     0.00749        1.01      -0.129
  YS02001757           JUNCTION      0.00  3399.82     0  02:12           0        11.7       0.038
  YS02001759           JUNCTION   1001.43  1433.30     0  02:13        1.38        3.09      -0.014
  YS02001762           JUNCTION      0.00   773.57     0  02:08           0        1.71       0.000
  YS02001765           JUNCTION      0.00   774.80     0  02:08           0        1.71       0.005
  YS02001767           JUNCTION      0.54   775.74     0  02:08      0.0154        1.71      -0.009
  YS02001770           JUNCTION   1404.55  1404.55     0  02:13         2.1        2.14       0.001
  YS02001774           JUNCTION      0.00   848.65     0  02:14           0       0.453       0.243
  YS02001779           JUNCTION      0.01   848.82     0  02:14    0.000144       0.408      -0.206
  YS02001783           JUNCTION      0.00  1170.70     0  02:13           0        4.42       0.007
  YS02001784           JUNCTION      1.06  1171.14     0  02:13      0.0305        4.45       0.012
  YS02001786           JUNCTION      0.06  1170.94     0  02:13     0.00162        4.45       0.015
  YS02001788           JUNCTION      0.07  1172.55     0  02:13     0.00204        4.45       0.007
  YS02001790           JUNCTION      0.15  1177.30     0  02:13     0.00446        4.45       0.022
  YS02001791           JUNCTION      0.00  1297.30     0  02:10           0        4.45      -0.032
  YS02001793           JUNCTION      0.00  1245.86     0  02:18           0        4.45       0.002
  YS02001882           JUNCTION      0.00    28.82     0  02:01           0      0.0127       4.529
  YS02001884           JUNCTION      0.00    58.95     0  02:01           0      0.0487       5.333
  YS02001887           JUNCTION   1075.25  1079.31     0  02:13        1.44        1.47       0.296
  YS02001890           JUNCTION      0.00  1080.81     0  02:13           0        1.43       0.359
  YS02001895           JUNCTION      0.00   518.74     0  02:17           0        1.22       0.128
  YS02001898           JUNCTION      0.00   519.20     0  02:13           0        1.21       0.009
  YS02001901           JUNCTION      0.00   518.40     0  02:13           0        1.22       0.270
  YS02001904           JUNCTION      0.00   518.37     0  02:13           0        1.22       0.227
  YS02001907           JUNCTION      0.00  2662.19     0  02:14           0        4.41       0.410
  YS02001910           JUNCTION      0.00  1876.34     0  02:14           0        3.13       0.228
  YS02001915           JUNCTION   1257.09  1876.74     0  02:14           2        3.16       0.051
  YS02001918           JUNCTION      0.00   619.85     0  02:14           0        1.19       0.000
  YS02001920           JUNCTION      2.87   619.33     0  02:14      0.0827        1.17       0.070
  YS02001923           JUNCTION      0.04   615.75     0  02:14     0.00109        1.08      -0.024
  YS02001926           JUNCTION      0.05   616.30     0  02:14      0.0015        1.06      -0.009
  YS02001929           JUNCTION    614.23   614.23     0  02:14        1.05        1.05      -0.050
  YS02006553           JUNCTION      0.00   804.00     0  02:31           0        2.47       0.488
  YS02006556           JUNCTION      0.00   803.55     0  02:31           0        2.48       0.320
  YS02006558           JUNCTION   1445.45  1445.45     0  02:13        2.11         4.5       0.076
  YS02006561           JUNCTION      0.00  1169.28     0  02:13           0        4.42      -0.002
  YS02163301           JUNCTION      0.00   927.32     0  02:03           0        3.72       0.038
  YS02163601           JUNCTION      0.11  1356.26     0  02:03     0.00317        4.98       0.096
  YS02164001           JUNCTION      0.00  1356.00     0  02:03           0        4.98       0.038
  CC-1                 OUTFALL       0.00   683.00     0  00:00           0        5.39       0.000
  CC-2                 OUTFALL       0.00   683.00     0  00:00           0        3.45       0.000
  JK-1                 OUTFALL       0.00  1000.00     0  00:00           0        2.39       0.000
  JK-2                 OUTFALL       0.00  1000.00     0  00:00           0       0.739       0.000
  WSC                  OUTFALL       0.00   555.11     0  02:48           0        5.13       0.000
  CC-storage           STORAGE       0.00  3399.72     0  02:12           0        13.9      -0.222
  JK-storage           STORAGE       0.00  1258.78     0  02:24           0         4.6      -0.361
  
  
  **********************
  Node Surcharge Summary
  **********************
  
  Surcharging occurs when water rises above the top of the highest conduit.
  ---------------------------------------------------------------------
                                               Max. Height   Min. Depth
                                   Hours       Above Crown    Below Rim
  Node                 Type      Surcharged         Meters       Meters
  ---------------------------------------------------------------------
  WS02006109           JUNCTION        1.98          0.290        1.530
  WS02006110           JUNCTION        0.94          0.209        1.641
  WS02006112           JUNCTION        0.91          0.065        1.615
  WS02006228           JUNCTION        1.97          0.278        1.922
  WS02006229           JUNCTION        1.98          0.341        2.109
  WS02006230           JUNCTION        0.94          0.210        1.360
  WS02006231           JUNCTION        1.00          0.338        1.192
  WS02006232           JUNCTION        2.04          0.803        0.677
  WS02006234           JUNCTION        1.22          0.968        0.272
  WS02006235           JUNCTION        2.01          1.022        0.268
  WS02006238           JUNCTION        2.02          1.051        0.379
  WS02006239           JUNCTION        1.96          0.984        0.306
  WS02006240           JUNCTION        1.97          0.902        0.488
  WS02006242           JUNCTION        1.98          0.820        0.000
  WS02006243           JUNCTION        1.95          0.615        0.155
  WS02006245           JUNCTION        1.94          0.538        0.312
  WS02006247           JUNCTION        1.94          0.509        0.251
  WS02006248           JUNCTION        1.93          0.380        0.000
  WS02006249           JUNCTION        1.93          0.390        0.000
  WS02006251           JUNCTION        1.03          0.369        0.811
  WS02006252           JUNCTION        2.35          1.100        0.000
  WS02006256           JUNCTION        7.05          2.050        0.000
  YS02001580           JUNCTION        0.74          0.450        0.000
  YS02001583           JUNCTION        0.75          0.500        0.000
  YS02001586           JUNCTION        0.86          0.510        0.000
  YS02001590           JUNCTION        0.94          0.750        0.000
  YS02001593           JUNCTION        0.95          0.696        0.144
  YS02001596           JUNCTION        1.06          0.952        0.118
  YS02001600           JUNCTION        1.22          1.190        0.000
  YS02001601           JUNCTION        1.53          1.440        0.000
  YS02001602           JUNCTION        1.43          1.270        0.000
  YS02001605           JUNCTION        1.38          1.180        0.000
  YS02001607           JUNCTION        0.92          0.655        0.025
  YS02001610           JUNCTION        0.95          0.680        0.000
  YS02001613           JUNCTION        0.91          0.700        0.000
  YS02001616           JUNCTION        0.87          0.610        0.000
  YS02001619           JUNCTION        0.86          0.610        0.000
  YS02001622           JUNCTION        0.85          0.583        0.037
  YS02001625           JUNCTION        1.04          0.780        0.000
  YS02001629           JUNCTION        0.79          0.470        0.000
  YS02001633           JUNCTION        1.07          1.060        0.000
  YS02001641           JUNCTION        1.00          1.100        0.000
  YS02001644           JUNCTION        0.97          0.920        0.000
  YS02001647           JUNCTION        0.73          0.769        0.131
  YS02001649           JUNCTION        0.85          1.005        0.045
  YS02001652           JUNCTION        0.64          0.833        0.297
  YS02001655           JUNCTION        0.48          0.682        0.518
  YS02001658           JUNCTION        0.29          0.461        0.839
  YS02001661           JUNCTION        0.10          0.195        1.195
  YS02001748           JUNCTION        0.23          0.444        0.746
  YS02001751           JUNCTION        0.37          0.554        0.646
  YS02001754           JUNCTION        0.55          0.696        0.454
  YS02001757           JUNCTION        0.92          1.083        0.127
  YS02001759           JUNCTION        0.82          1.119        0.091
  YS02001762           JUNCTION        0.78          1.066        0.084
  YS02001765           JUNCTION        0.74          1.004        0.096
  YS02001767           JUNCTION        0.70          0.970        0.060
  YS02001770           JUNCTION        0.67          0.920        0.000
  YS02001774           JUNCTION        0.76          1.002        0.048
  YS02001779           JUNCTION        0.54          0.680        0.000
  YS02001783           JUNCTION        0.64          0.568        1.032
  YS02001784           JUNCTION        0.61          0.396        1.094
  YS02001786           JUNCTION        0.49          0.130        1.300
  YS02001882           JUNCTION        0.58          0.710        0.120
  YS02001884           JUNCTION        0.59          0.732        0.138
  YS02001887           JUNCTION        0.62          0.833        0.117
  YS02001890           JUNCTION        0.64          0.760        0.000
  YS02001895           JUNCTION        0.56          0.575        0.175
  YS02001898           JUNCTION        0.56          0.555        0.185
  YS02001901           JUNCTION        0.61          0.700        0.170
  YS02001904           JUNCTION        0.60          0.658        0.192
  YS02001907           JUNCTION        0.88          0.950        0.000
  YS02001910           JUNCTION        0.67          1.005        0.095
  YS02001915           JUNCTION        0.57          1.000        0.000
  YS02001918           JUNCTION        0.48          0.810        0.000
  YS02001920           JUNCTION        0.50          1.093        0.047
  YS02001923           JUNCTION        0.19          0.820        0.000
  YS02001926           JUNCTION        0.23          0.900        0.000
  YS02001929           JUNCTION        0.07          0.780        0.000
  YS02006553           JUNCTION        0.90          1.002        0.188
  YS02006556           JUNCTION        0.77          0.981        0.369
  YS02006558           JUNCTION        0.75          0.998        0.402
  YS02006561           JUNCTION        0.45          0.257        0.893
  YS02163301           JUNCTION        1.05          0.974        0.056
  YS02163601           JUNCTION        1.10          1.080        0.000
  YS02164001           JUNCTION        1.01          1.100        0.000
  
  
  *********************
  Node Flooding Summary
  *********************
  
  Flooding refers to all water that overflows a node, whether it ponds or not.
  --------------------------------------------------------------------------
                                                             Total   Maximum
                                 Maximum   Time of Max       Flood    Ponded
                        Hours       Rate    Occurrence      Volume     Depth
  Node                 Flooded       LPS   days hr:min    10^6 ltr    Meters
  --------------------------------------------------------------------------
  WS02006242              0.01      0.99      0  04:00       0.000     0.000
  WS02006248              0.01     11.11      0  03:09       0.000     0.000
  WS02006249              1.02    103.93      0  02:05       0.252     0.000
  WS02006252              0.01    245.63      0  00:00       0.000     0.000
  WS02006256              1.34    293.19      0  00:00       0.464     0.000
  YS02001580              0.01     52.54      0  01:59       0.000     0.000
  YS02001583              0.01     97.18      0  01:59       0.000     0.000
  YS02001586              0.60    669.49      0  02:15       0.623     0.000
  YS02001600              0.01      0.81      0  01:59       0.000     0.000
  YS02001601              0.79   1654.41      0  02:14       1.886     0.000
  YS02001602              0.65     62.03      0  02:13       0.134     0.000
  YS02001605              0.01      2.55      0  01:59       0.000     0.000
  YS02001610              0.59    950.43      0  02:16       1.027     0.000
  YS02001613              0.01      9.85      0  01:59       0.000     0.000
  YS02001616              0.03     12.62      0  01:59       0.000     0.000
  YS02001619              0.08    103.37      0  02:14       0.018     0.000
  YS02001625              0.54   1502.51      0  02:16       1.594     0.000
  YS02001629              0.20    224.60      0  02:13       0.084     0.000
  YS02001633              0.01      1.60      0  02:06       0.000     0.000
  YS02001641              0.01      1.84      0  02:06       0.000     0.000
  YS02001644              0.27   1778.90      0  02:13       0.831     0.000
  YS02001770              0.06    161.21      0  02:13       0.018     0.000
  YS02001779              0.23    848.68      0  02:14       0.389     0.000
  YS02001890              0.24    561.30      0  02:13       0.209     0.000
  YS02001907              0.43   2662.07      0  02:14       1.984     0.000
  YS02001915              0.01      1.36      0  02:13       0.000     0.000
  YS02001918              0.01     86.52      0  02:05       0.001     0.000
  YS02001923              0.01     99.72      0  02:05       0.000     0.000
  YS02001926              0.01     33.25      0  02:05       0.000     0.000
  YS02001929              0.01    216.43      0  02:04       0.001     0.000
  YS02163601              0.01      2.56      0  02:06       0.000     0.000
  YS02164001              0.01      3.48      0  02:06       0.000     0.000
  
  
  **********************
  Storage Volume Summary
  **********************
  
  ------------------------------------------------------------------------------------------------
                         Average    Avg   Evap  Exfil     Maximum    Max    Time of Max    Maximum
                          Volume   Pcnt   Pcnt   Pcnt      Volume   Pcnt     Occurrence    Outflow
  Storage Unit           1000 m³   Full   Loss   Loss     1000 m³   Full    days hr:min        LPS
  ------------------------------------------------------------------------------------------------
  CC-storage               2.362   36.9    0.0    0.0       4.650   72.5       0  02:41    1783.53
  JK-storage               0.086   29.6    0.0    0.0       0.212   72.8       0  02:09    2300.00
  
  
  ***********************
  Outfall Loading Summary
  ***********************
  
  -----------------------------------------------------------
                         Flow       Avg       Max       Total
                         Freq      Flow      Flow      Volume
  Outfall Node           Pcnt       LPS       LPS    10^6 ltr
  -----------------------------------------------------------
  CC-1                  45.78    683.00    683.00       5.386
  CC-2                  27.59    683.00    683.00       3.454
  JK-1                  12.86   1000.00   1000.00       2.389
  JK-2                   4.83   1000.00   1000.00       0.739
  WSC                   99.95    241.01    555.11       5.134
  -----------------------------------------------------------
  System                38.20   3607.01   3920.66      17.101
  
  
  ********************
  Link Flow Summary
  ********************
  
  -----------------------------------------------------------------------------
                                 Maximum  Time of Max   Maximum    Max/    Max/
                                  |Flow|   Occurrence   |Veloc|    Full    Full
  Link                 Type          LPS  days hr:min     m/sec    Flow   Depth
  -----------------------------------------------------------------------------
  1                    CONDUIT    555.11     0  02:48      2.83    0.19    0.30
  WS02003060WS02003069 CONDUIT    553.13     0  02:47      1.64    0.22    0.34
  WS02003066WSF200     CONDUIT    536.61     0  02:46      2.85    0.09    0.22
  WS02003067WS02003066 CONDUIT    536.59     0  02:46      1.21    0.17    0.42
  WS02003069WS02003072 CONDUIT    553.37     0  02:47      1.37    0.27    0.39
  WS02003072WS02003073 CONDUIT    553.33     0  02:48      1.44    1.20    0.37
  WS02004401WS02004402 CONDUIT    538.02     0  02:58      0.98    0.65    0.86
  WS02004402WS02004403 CONDUIT    537.97     0  02:58      0.97    0.77    0.88
  WS02004403WS02004404 CONDUIT    537.59     0  02:54      0.92    0.39    0.93
  WS02004404WS02004405 CONDUIT    537.56     0  02:54      1.08    5.27    0.96
  WS02004405WS02004406 CONDUIT    538.05     0  02:59      0.99    1.06    0.96
  WS02004406WS02004407 CONDUIT    537.27     0  02:55      1.04    0.24    0.63
  WS02004407WS02004409 CONDUIT    537.04     0  02:55      1.50    0.19    0.48
  WS02004409WS02004410 CONDUIT    536.95     0  02:55      0.98    0.69    0.67
  WS02004410WS02004411 CONDUIT    536.74     0  02:55      0.93    0.73    0.69
  WS02004411WS02004412 CONDUIT    536.68     0  02:59      0.92    0.76    0.69
  WS02004412WS02004413 CONDUIT    536.72     0  02:57      0.82    0.36    0.78
  WS02004413WS02003067 CONDUIT    536.58     0  02:45      1.11    0.23    0.59
  WS02006109WS02006110 CONDUIT    553.72     0  03:11      1.10    1.06    1.00
  WS02006110WS02006113 CONDUIT    565.64     0  02:19      1.37    0.51    0.78
  WS02006111WS02006112 CONDUIT    543.22     0  02:57      1.81    0.26    0.67
  WS02006112WS02006115 CONDUIT    551.23     0  02:21      0.81    0.33    0.87
  WS02006113WS02006111 CONDUIT    560.86     0  02:51      2.47    0.67    0.46
  WS02006115WS02006116 CONDUIT    540.12     0  02:58      0.97    0.69    0.76
  WS02006116WS02004401 CONDUIT    538.54     0  02:54      0.98    0.74    0.84
  WS02006228WS02006109 CONDUIT    551.54     0  03:11      1.10    2.41    1.00
  WS02006229WS02006228 CONDUIT    550.09     0  03:11      1.14    1.82    1.00
  WS02006230WS02006229 CONDUIT    550.74     0  02:19      1.43   12.26    1.00
  WS02006231WS02006230 CONDUIT    600.65     0  03:09      1.64    9.11    1.00
  WS02006232WS02006231 CONDUIT    618.24     0  03:09      1.61    1.30    1.00
  WS02006234WS02006232 CONDUIT    614.49     0  03:09      1.60    1.24    1.00
  WS02006235WS02006234 CONDUIT    597.00     0  03:09      1.55    6.30    1.00
  WS02006238WS02006235 CONDUIT    422.80     0  03:23      1.45    0.94    1.00
  WS02006239WS02006238 CONDUIT    422.40     0  02:15      1.18    1.35    1.00
  WS02006240WS02006239 CONDUIT    421.62     0  02:15      1.29    1.33    1.00
  WS02006242WS02006240 CONDUIT    419.49     0  02:15      1.17    1.67    1.00
  WS02006243WS02006242 CONDUIT    419.54     0  03:23      1.43    0.90    1.00
  WS02006245WS02006243 CONDUIT    418.80     0  03:23      1.45    1.24    1.00
  WS02006247WS02006245 CONDUIT    418.72     0  02:15      1.43    3.32    1.00
  WS02006248WS02006247 CONDUIT    418.62     0  03:10      1.44    0.91    1.00
  WS02006249WS02006248 CONDUIT    419.60     0  03:10      1.39    2.30    1.00
  WS02006251WS02006249 CONDUIT    463.80     0  01:40      1.99    1.34    1.00
  WS02006252WS02006251 CONDUIT    408.69     0  03:09     24.61    1.50    1.00
  WS02006256WS02006235 CONDUIT    288.91     0  00:00      4.23    3.06    1.00
  WSF200WS02003060     CONDUIT    536.73     0  02:58      2.06    0.12    0.28
  YS02001580YS02001583 CONDUIT     79.33     0  01:59      0.57    0.31    1.00
  YS02001583YS02001586 CONDUIT    135.55     0  01:59      0.57    0.21    1.00
  YS02001586YS02001590 CONDUIT    318.93     0  02:06      1.25    0.56    1.00
  YS02001590YS02001593 CONDUIT    318.29     0  02:06      1.13    2.00    1.00
  YS02001593YS02001596 CONDUIT    318.07     0  02:23      1.76    0.50    1.00
  YS02001596YS02001600 CONDUIT    318.00     0  02:15      1.27    0.62    1.00
  YS02001600YS02001601 CONDUIT    318.23     0  02:06      1.13    0.55    1.00
  YS02001601YS02001602 CONDUIT    502.31     0  01:58      1.78    1.81    1.00
  YS02001602YS02001605 CONDUIT    502.55     0  01:58      1.78   10.63    1.00
  YS02001605YS02001607 CONDUIT    502.75     0  01:58      1.78    2.76    1.00
  YS02001607YS02001610 CONDUIT    506.73     0  01:58      0.65    0.48    1.00
  YS02001610YS02001613 CONDUIT    614.36     0  02:16      0.78    0.71    1.00
  YS02001613YS02001616 CONDUIT    614.75     0  02:16      0.78    0.53    1.00
  YS02001616YS02001619 CONDUIT    614.25     0  02:16      0.78    1.07    1.00
  YS02001619YS02001622 CONDUIT   1053.51     0  02:16      1.34    1.55    1.00
  YS02001622YS02001625 CONDUIT   1053.59     0  02:15      1.34    0.56    1.00
  YS02001625YS02001629 CONDUIT    927.98     0  02:03      1.18    0.44    1.00
  YS02001629YS02163301 CONDUIT    927.32     0  02:03      1.18    1.14    1.00
  YS02001633YS02163601 CONDUIT   1356.15     0  02:03      1.73    1.42    1.00
  YS02001641YS02001644 CONDUIT   1355.64     0  02:03      1.73    4.38    1.00
  YS02001644YS02001647 CONDUIT   1754.30     0  02:03      2.24    1.03    1.00
  YS02001647YS02001649 CONDUIT   1769.76     0  02:03      2.32    0.93    1.00
  YS02001649YS02001757 CONDUIT   2004.22     0  02:03      2.55    1.22    1.00
  YS02001652YS02001649 CONDUIT   1158.58     0  02:13      1.48    0.57    1.00
  YS02001655YS02001652 CONDUIT   1158.63     0  02:13      1.48    0.56    1.00
  YS02001658YS02001655 CONDUIT   1158.45     0  02:13      1.85    0.49    1.00
  YS02001661YS02001658 CONDUIT   1158.75     0  02:13      2.26    0.45    1.00
  YS02001664YS02001661 CONDUIT   1157.74     0  02:13      2.25    0.36    0.87
  YS02001745YS02001748 CONDUIT    729.45     0  02:13      2.13    0.28    0.96
  YS02001748YS02001751 CONDUIT    729.91     0  02:13      1.66    0.37    1.00
  YS02001751YS02001754 CONDUIT    730.75     0  02:13      1.40    0.35    1.00
  YS02001754YS02001757 CONDUIT    731.16     0  02:13      0.93    0.29    1.00
  YS02001757CaochengTiaoxuchi CONDUIT   3399.72     0  02:12      4.33    1.47    1.00
  YS02001759YS02001757 CONDUIT   1435.55     0  02:13      1.83    1.02    1.00
  YS02001762YS02001759 CONDUIT    772.42     0  02:08      0.98    0.89    1.00
  YS02001765YS02001762 CONDUIT    773.57     0  02:08      0.98    0.73    1.00
  YS02001767YS02001765 CONDUIT    774.80     0  02:08      0.99    0.97    1.00
  YS02001770YS02001767 CONDUIT    775.21     0  02:08      0.99    3.07    1.00
  YS02001774YS02001770 CONDUIT    848.65     0  02:14      1.08    0.54    1.00
  YS02001779YS02001774 CONDUIT    848.82     0  02:14      1.08    0.43    1.00
  YS02001783YS02001784 CONDUIT   1170.08     0  02:13      2.33    1.61    1.00
  YS02001784YS02001785 CONDUIT   1170.88     0  02:13      2.33    2.72    1.00
  YS02001786YS02001788 CONDUIT   1172.48     0  02:13      2.50    2.26    0.89
  YS02001788YS02001790 CONDUIT   1177.14     0  02:13      2.72    0.87    0.85
  YS02001790YS02001791 CONDUIT   1297.30     0  02:10      3.44    1.41    0.71
  YS02001791YS02001793 CONDUIT   1245.86     0  02:18      6.78    0.53    0.45
  YS02001793JiankangQianchi CONDUIT   1258.78     0  02:24      2.52    0.10    0.65
  YS02001882YS02001884 CONDUIT     28.82     0  02:01      0.13    0.03    1.00
  YS02001884YS02001887 CONDUIT     58.95     0  02:01      0.10    0.08    1.00
  YS02001887YS02001890 CONDUIT   1080.81     0  02:13      1.38    1.85    1.00
  YS02001890YS02001895 CONDUIT    518.74     0  02:17      0.66    0.24    1.00
  YS02001895YS02001898 CONDUIT    519.20     0  02:13      0.66    0.90    1.00
  YS02001898YS02001901 CONDUIT    518.40     0  02:13      0.66    0.33    1.00
  YS02001901YS02001904 CONDUIT    518.37     0  02:13      0.66    0.80    1.00
  YS02001904YS02001907 CONDUIT    519.53     0  02:13      0.66    0.18    1.00
  YS02001907YS02006553 CONDUIT    804.00     0  02:31      0.89    0.95    1.00
  YS02001910YS02001907 CONDUIT   1876.66     0  02:14      2.39    1.06    1.00
  YS02001915YS02001910 CONDUIT   1876.34     0  02:14      2.39    0.93    1.00
  YS02001918YS02001915 CONDUIT    620.78     0  02:14      0.79    0.34    1.00
  YS02001920YS02001918 CONDUIT    619.85     0  02:14      0.79    0.60    1.00
  YS02001923YS02001920 CONDUIT    616.46     0  02:14      0.78    0.28    1.00
  YS02001926YS02001923 CONDUIT    615.71     0  02:14      0.95    0.88    1.00
  YS02001929YS02001926 CONDUIT    616.25     0  02:14      1.09    0.29    1.00
  YS02006553YS02006556 CONDUIT    803.55     0  02:31      1.02    0.69    1.00
  YS02006556YS02006558 CONDUIT    805.68     0  02:31      1.03    0.64    1.00
  YS02006558YS02006561 CONDUIT   1169.28     0  02:13      4.14    2.58    1.00
  YS02006561YS02001783 CONDUIT   1170.70     0  02:13      2.33    0.61    1.00
  YS02163301YS02001633 CONDUIT    926.72     0  02:03      1.18    0.87    1.00
  YS02163601YS02164001 CONDUIT   1356.00     0  02:03      1.73    1.20    1.00
  YS02164001YS02001641 CONDUIT   1354.21     0  02:03      1.72    1.85    1.00
  CC-R1                PUMP       683.00     0  00:00              1.00
  CC-R2                PUMP       683.00     0  00:00              1.00
  CC-S1                PUMP       200.00     0  00:00              1.00
  CC-S2                PUMP       200.00     0  00:00              1.00
  JK-R1                PUMP      1000.00     0  00:00              1.00
  JK-R2                PUMP      1000.00     0  00:00              1.00
  JK-S                 PUMP       300.00     0  00:00              1.00
  
  
  ***************************
  Flow Classification Summary
  ***************************
  
  -------------------------------------------------------------------------------------
                      Adjusted    ---------- Fraction of Time in Flow Class ---------- 
                       /Actual         Up    Down  Sub   Sup   Up    Down  Norm  Inlet 
  Conduit               Length    Dry  Dry   Dry   Crit  Crit  Crit  Crit  Ltd   Ctrl  
  -------------------------------------------------------------------------------------
  1                       1.00   0.00  0.00  0.00  0.00  1.00  0.00  0.00  0.43  0.00
  WS02003060WS02003069    1.00   0.00  0.00  0.00  0.97  0.03  0.00  0.00  0.69  0.00
  WS02003066WSF200        1.00   0.13  0.00  0.00  0.00  0.87  0.00  0.00  0.73  0.00
  WS02003067WS02003066    1.00   0.10  0.02  0.00  0.88  0.00  0.00  0.00  0.00  0.00
  WS02003069WS02003072    1.00   0.00  0.00  0.00  0.99  0.01  0.00  0.00  0.73  0.00
  WS02003072WS02003073    1.00   0.00  0.00  0.00  0.00  0.00  0.00  1.00  0.00  0.00
  WS02004401WS02004402    1.00   0.02  0.00  0.00  0.98  0.00  0.00  0.00  0.00  0.00
  WS02004402WS02004403    1.00   0.02  0.00  0.00  0.97  0.00  0.00  0.00  0.00  0.00
  WS02004403WS02004404    1.00   0.00  0.03  0.00  0.97  0.00  0.00  0.00  0.00  0.00
  WS02004404WS02004405    1.00   0.00  0.00  0.00  1.00  0.00  0.00  0.00  0.01  0.00
  WS02004405WS02004406    1.00   0.00  0.00  0.00  1.00  0.00  0.00  0.00  0.00  0.00
  WS02004406WS02004407    1.00   0.00  0.05  0.00  0.95  0.00  0.00  0.00  0.00  0.00
  WS02004407WS02004409    1.00   0.05  0.00  0.00  0.94  0.01  0.00  0.00  0.94  0.00
  WS02004409WS02004410    1.00   0.05  0.00  0.00  0.95  0.00  0.00  0.00  0.03  0.00
  WS02004410WS02004411    1.00   0.05  0.00  0.00  0.95  0.00  0.00  0.00  0.01  0.00
  WS02004411WS02004412    1.00   0.05  0.00  0.00  0.95  0.00  0.00  0.00  0.00  0.00
  WS02004412WS02004413    1.00   0.05  0.00  0.00  0.94  0.00  0.00  0.00  0.01  0.00
  WS02004413WS02003067    1.00   0.06  0.04  0.00  0.00  0.00  0.90  0.00  0.00  0.00
  WS02006109WS02006110    1.00   0.00  0.01  0.00  0.98  0.00  0.01  0.00  0.00  0.00
  WS02006110WS02006113    1.00   0.01  0.01  0.00  0.98  0.00  0.00  0.00  0.00  0.00
  WS02006111WS02006112    1.00   0.02  0.00  0.00  0.98  0.00  0.00  0.00  0.98  0.00
  WS02006112WS02006115    1.00   0.02  0.00  0.00  0.97  0.00  0.00  0.00  0.00  0.00
  WS02006113WS02006111    1.00   0.02  0.00  0.00  0.00  0.98  0.00  0.00  0.15  0.00
  WS02006115WS02006116    1.00   0.02  0.00  0.00  0.97  0.00  0.00  0.01  0.00  0.00
  WS02006116WS02004401    1.00   0.02  0.00  0.00  0.98  0.00  0.00  0.00  0.00  0.00
  WS02006228WS02006109    1.00   0.00  0.00  0.00  1.00  0.00  0.00  0.00  0.01  0.00
  WS02006229WS02006228    1.00   0.00  0.00  0.00  0.99  0.00  0.00  0.01  0.00  0.00
  WS02006230WS02006229    1.00   0.00  0.00  0.00  0.99  0.00  0.00  0.01  0.02  0.00
  WS02006231WS02006230    1.00   0.00  0.00  0.00  0.26  0.00  0.74  0.00  0.00  0.00
  WS02006232WS02006231    1.00   0.00  0.00  0.00  0.98  0.00  0.02  0.00  0.00  0.00
  WS02006234WS02006232    1.00   0.00  0.00  0.00  1.00  0.00  0.00  0.00  0.05  0.00
  WS02006235WS02006234    1.00   0.00  0.00  0.00  0.90  0.00  0.10  0.00  0.00  0.00
  WS02006238WS02006235    1.00   0.00  0.00  0.00  1.00  0.00  0.00  0.00  0.00  0.00
  WS02006239WS02006238    1.00   0.00  0.00  0.00  1.00  0.00  0.00  0.00  0.15  0.00
  WS02006240WS02006239    1.00   0.00  0.00  0.00  0.64  0.00  0.00  0.36  0.04  0.00
  WS02006242WS02006240    1.00   0.00  0.00  0.00  0.98  0.00  0.01  0.00  0.00  0.00
  WS02006243WS02006242    1.00   0.00  0.00  0.00  0.99  0.00  0.00  0.01  0.57  0.00
  WS02006245WS02006243    1.00   0.00  0.00  0.00  0.78  0.00  0.00  0.22  0.01  0.00
  WS02006247WS02006245    1.00   0.00  0.00  0.00  0.97  0.00  0.00  0.03  0.00  0.00
  WS02006248WS02006247    1.00   0.00  0.00  0.00  0.99  0.00  0.00  0.01  0.49  0.00
  WS02006249WS02006248    1.00   0.00  0.00  0.00  0.42  0.00  0.58  0.00  0.00  0.00
  WS02006251WS02006249    1.00   0.00  0.00  0.00  0.99  0.01  0.00  0.00  0.57  0.00
  WS02006252WS02006251    1.00   0.00  0.60  0.00  0.13  0.00  0.27  0.00  0.00  0.00
  WS02006256WS02006235    1.00   0.00  0.00  0.00  0.98  0.02  0.00  0.00  0.00  0.00
  WSF200WS02003060        1.00   0.00  0.13  0.00  0.39  0.48  0.00  0.00  0.56  0.00
  YS02001580YS02001583    1.00   0.24  0.55  0.00  0.21  0.00  0.00  0.00  0.64  0.00
  YS02001583YS02001586    1.00   0.41  0.33  0.00  0.26  0.00  0.00  0.00  0.64  0.00
  YS02001586YS02001590    1.00   0.13  0.00  0.00  0.45  0.04  0.00  0.38  0.37  0.00
  YS02001590YS02001593    1.00   0.13  0.01  0.00  0.13  0.00  0.73  0.00  0.00  0.00
  YS02001593YS02001596    1.00   0.13  0.00  0.00  0.15  0.01  0.00  0.71  0.02  0.00
  YS02001596YS02001600    1.00   0.14  0.00  0.00  0.21  0.01  0.00  0.64  0.04  0.00
  YS02001600YS02001601    1.00   0.13  0.01  0.00  0.86  0.00  0.00  0.00  0.59  0.00
  YS02001601YS02001602    1.00   0.13  0.01  0.00  0.87  0.00  0.00  0.00  0.00  0.00
  YS02001602YS02001605    1.00   0.13  0.00  0.00  0.86  0.00  0.00  0.00  0.00  0.00
  YS02001605YS02001607    1.00   0.14  0.00  0.00  0.86  0.00  0.00  0.00  0.00  0.00
  YS02001607YS02001610    1.00   0.13  0.01  0.00  0.86  0.00  0.00  0.00  0.01  0.00
  YS02001610YS02001613    1.00   0.13  0.00  0.00  0.87  0.00  0.00  0.00  0.00  0.00
  YS02001613YS02001616    1.00   0.13  0.00  0.00  0.87  0.00  0.00  0.00  0.00  0.00
  YS02001616YS02001619    1.00   0.13  0.00  0.00  0.87  0.00  0.00  0.00  0.00  0.00
  YS02001619YS02001622    1.00   0.13  0.00  0.00  0.87  0.00  0.00  0.00  0.28  0.00
  YS02001622YS02001625    1.00   0.13  0.00  0.00  0.87  0.00  0.00  0.00  0.04  0.00
  YS02001625YS02001629    1.00   0.13  0.05  0.00  0.17  0.00  0.65  0.00  0.00  0.00
  YS02001629YS02163301    1.00   0.15  0.01  0.00  0.84  0.00  0.00  0.00  0.00  0.00
  YS02001633YS02163601    1.00   0.00  0.01  0.00  0.99  0.00  0.00  0.00  0.15  0.00
  YS02001641YS02001644    1.00   0.00  0.01  0.00  0.99  0.00  0.00  0.00  0.00  0.00
  YS02001644YS02001647    1.00   0.00  0.17  0.00  0.83  0.00  0.00  0.00  0.00  0.00
  YS02001647YS02001649    1.00   0.00  0.17  0.00  0.56  0.27  0.00  0.00  0.55  0.00
  YS02001649YS02001757    1.00   0.00  0.00  0.00  0.77  0.23  0.00  0.00  0.40  0.00
  YS02001652YS02001649    1.00   0.00  0.00  0.00  0.97  0.03  0.00  0.00  0.72  0.00
  YS02001655YS02001652    1.00   0.00  0.00  0.00  0.21  0.01  0.00  0.78  0.06  0.00
  YS02001658YS02001655    1.00   0.00  0.14  0.00  0.67  0.19  0.00  0.00  0.67  0.00
  YS02001661YS02001658    1.00   0.14  0.00  0.00  0.51  0.35  0.00  0.00  0.68  0.00
  YS02001664YS02001661    1.00   0.13  0.00  0.00  0.77  0.11  0.00  0.00  0.84  0.00
  YS02001745YS02001748    1.00   0.00  0.00  0.00  0.11  0.01  0.00  0.89  0.05  0.00
  YS02001748YS02001751    1.00   0.00  0.00  0.00  0.83  0.17  0.00  0.00  0.75  0.00
  YS02001751YS02001754    1.00   0.00  0.00  0.00  0.18  0.01  0.00  0.81  0.04  0.00
  YS02001754YS02001757    1.00   0.00  0.00  0.00  1.00  0.00  0.00  0.00  0.79  0.00
  YS02001757CaochengTiaoxuchi    1.00   0.00  0.00  0.00  0.95  0.05  0.00  0.00  0.70  0.00
  YS02001759YS02001757    1.00   0.00  0.00  0.00  0.99  0.01  0.00  0.00  0.56  0.00
  YS02001762YS02001759    1.00   0.00  0.00  0.00  1.00  0.00  0.00  0.00  0.03  0.00
  YS02001765YS02001762    1.00   0.00  0.00  0.00  1.00  0.00  0.00  0.00  0.65  0.00
  YS02001767YS02001765    1.00   0.00  0.00  0.00  1.00  0.00  0.00  0.00  0.01  0.00
  YS02001770YS02001767    1.00   0.00  0.00  0.00  1.00  0.00  0.00  0.00  0.00  0.00
  YS02001774YS02001770    1.00   0.00  0.13  0.00  0.70  0.00  0.16  0.00  0.03  0.00
  YS02001779YS02001774    1.00   0.00  0.00  0.00  1.00  0.00  0.00  0.00  0.75  0.00
  YS02001783YS02001784    1.00   0.00  0.18  0.00  0.82  0.00  0.00  0.00  0.55  0.00
  YS02001784YS02001785    1.00   0.00  0.00  0.00  1.00  0.00  0.00  0.00  0.16  0.00
  YS02001786YS02001788    1.00   0.00  0.00  0.00  0.80  0.20  0.00  0.00  0.00  0.00
  YS02001788YS02001790    1.00   0.00  0.00  0.00  0.22  0.78  0.00  0.00  0.80  0.00
  YS02001790YS02001791    1.00   0.00  0.00  0.00  0.01  0.99  0.00  0.00  0.16  0.00
  YS02001791YS02001793    1.00   0.00  0.00  0.00  0.00  1.00  0.00  0.00  0.01  0.00
  YS02001793JiankangQianchi    1.00   0.00  0.00  0.00  0.96  0.04  0.00  0.00  0.96  0.00
  YS02001882YS02001884    1.00   0.15  0.01  0.00  0.84  0.00  0.00  0.00  0.00  0.00
  YS02001884YS02001887    1.00   0.06  0.05  0.00  0.89  0.00  0.00  0.00  0.00  0.00
  YS02001887YS02001890    1.00   0.00  0.00  0.00  0.97  0.00  0.03  0.00  0.00  0.00
  YS02001890YS02001895    1.00   0.00  0.16  0.00  0.84  0.00  0.00  0.00  0.00  0.00
  YS02001895YS02001898    1.00   0.16  0.00  0.00  0.82  0.00  0.02  0.00  0.00  0.00
  YS02001898YS02001901    1.00   0.16  0.00  0.00  0.84  0.00  0.00  0.00  0.01  0.00
  YS02001901YS02001904    1.00   0.16  0.00  0.00  0.84  0.00  0.00  0.00  0.00  0.00
  YS02001904YS02001907    1.00   0.00  0.16  0.00  0.84  0.00  0.00  0.00  0.00  0.00
  YS02001907YS02006553    1.00   0.00  0.02  0.00  0.98  0.00  0.00  0.00  0.00  0.00
  YS02001910YS02001907    1.00   0.00  0.00  0.00  0.97  0.00  0.00  0.03  0.12  0.00
  YS02001915YS02001910    1.00   0.00  0.00  0.00  0.97  0.03  0.00  0.00  0.15  0.00
  YS02001918YS02001915    1.00   0.00  0.01  0.00  0.98  0.02  0.00  0.00  0.73  0.00
  YS02001920YS02001918    1.00   0.00  0.01  0.00  0.99  0.00  0.00  0.00  0.00  0.00
  YS02001923YS02001920    1.00   0.00  0.00  0.00  1.00  0.00  0.00  0.00  0.91  0.00
  YS02001926YS02001923    1.00   0.00  0.07  0.00  0.07  0.00  0.85  0.00  0.00  0.00
  YS02001929YS02001926    1.00   0.00  0.13  0.00  0.87  0.00  0.00  0.00  0.81  0.00
  YS02006553YS02006556    1.00   0.01  0.00  0.00  0.99  0.00  0.00  0.00  0.03  0.00
  YS02006556YS02006558    1.00   0.00  0.00  0.00  1.00  0.00  0.00  0.00  0.00  0.00
  YS02006558YS02006561    1.00   0.18  0.00  0.00  0.07  0.76  0.00  0.00  0.18  0.00
  YS02006561YS02001783    1.00   0.18  0.00  0.00  0.10  0.72  0.00  0.00  0.67  0.00
  YS02163301YS02001633    1.00   0.00  0.15  0.00  0.85  0.00  0.00  0.00  0.00  0.00
  YS02163601YS02164001    1.00   0.00  0.08  0.00  0.92  0.00  0.00  0.00  0.00  0.00
  YS02164001YS02001641    1.00   0.01  0.07  0.00  0.92  0.00  0.00  0.00  0.05  0.00
  
  
  *************************
  Conduit Surcharge Summary
  *************************
  
  ----------------------------------------------------------------------------
                                                           Hours        Hours 
                         --------- Hours Full --------   Above Full   Capacity
  Conduit                Both Ends  Upstream  Dnstream   Normal Flow   Limited
  ----------------------------------------------------------------------------
  WS02003072WS02003073        0.01      0.01      0.01      1.21         0.01
  WS02004404WS02004405        0.01      0.01      0.01      3.13         0.01
  WS02004405WS02004406        0.01      0.01      0.01      0.87         0.01
  WS02006109WS02006110        0.93      0.93      2.01      0.98         0.01
  WS02006110WS02006113        0.01      0.01      2.00      0.01         0.01
  WS02006111WS02006112        0.01      0.01      2.12      0.01         0.01
  WS02006112WS02006115        0.01      0.01      0.91      0.01         0.01
  WS02006228WS02006109        1.98      2.01      1.98      2.48         1.98
  WS02006229WS02006228        1.97      1.98      1.97      2.18         1.97
  WS02006230WS02006229        2.06      2.13      2.06      3.51         2.06
  WS02006231WS02006230        0.93      0.94      1.03      3.21         0.01
  WS02006232WS02006231        1.00      1.00      2.04      1.05         0.01
  WS02006234WS02006232        1.95      1.95      2.04      1.03         1.02
  WS02006235WS02006234        1.22      1.22      2.01      2.99         0.01
  WS02006238WS02006235        2.01      2.01      2.04      0.01         0.01
  WS02006239WS02006238        1.97      1.98      2.02      2.01         1.78
  WS02006240WS02006239        1.96      1.98      1.96      2.02         1.66
  WS02006242WS02006240        1.97      1.97      2.00      2.26         0.01
  WS02006243WS02006242        1.96      1.96      1.98      0.01         0.02
  WS02006245WS02006243        1.94      1.94      1.95      1.17         1.14
  WS02006247WS02006245        1.94      1.94      1.94      2.80         1.93
  WS02006248WS02006247        1.93      1.93      1.94      0.01         0.02
  WS02006249WS02006248        1.93      1.93      1.93      2.77         0.01
  WS02006251WS02006249        1.92      1.92      1.93      2.25         1.89
  WS02006252WS02006251        2.32      2.32      2.35      2.33         0.01
  WS02006256WS02006235        3.08      3.11      6.99      1.37         0.01
  YS02001580YS02001583        0.74      0.74      0.79      0.01         0.01
  YS02001583YS02001586        0.75      0.75      0.86      0.01         0.01
  YS02001586YS02001590        0.87      0.87      0.94      0.01         0.01
  YS02001590YS02001593        0.95      0.95      0.96      0.98         0.01
  YS02001593YS02001596        0.96      0.96      1.06      0.01         0.01
  YS02001596YS02001600        1.12      1.12      1.22      0.01         0.01
  YS02001600YS02001601        1.27      1.27      1.53      0.01         0.01
  YS02001601YS02001602        1.43      1.43      1.56      1.23         0.01
  YS02001602YS02001605        1.38      1.38      1.43      2.38         0.01
  YS02001605YS02001607        1.34      1.38      1.34      1.49         1.34
  YS02001607YS02001610        0.92      0.92      0.95      0.01         0.01
  YS02001610YS02001613        0.91      0.91      0.95      0.01         0.01
  YS02001613YS02001616        0.87      0.87      0.91      0.01         0.01
  YS02001616YS02001619        0.86      0.86      0.87      0.07         0.08
  YS02001619YS02001622        0.85      0.86      0.85      0.96         0.82
  YS02001622YS02001625        0.85      0.85      1.04      0.01         0.01
  YS02001625YS02001629        0.79      0.79      1.04      0.01         0.01
  YS02001629YS02163301        1.04      1.04      1.05      0.23         0.21
  YS02001633YS02163601        1.07      1.07      1.10      0.40         0.39
  YS02001641YS02001644        0.97      1.00      0.97      1.60         0.96
  YS02001644YS02001647        0.73      0.73      0.97      0.03         0.01
  YS02001647YS02001649        0.73      0.73      0.85      0.01         0.01
  YS02001649YS02001757        0.84      0.85      0.92      0.14         0.08
  YS02001652YS02001649        0.67      0.67      0.85      0.01         0.01
  YS02001655YS02001652        0.48      0.48      0.64      0.01         0.01
  YS02001658YS02001655        0.29      0.29      0.48      0.01         0.01
  YS02001661YS02001658        0.10      0.10      0.29      0.01         0.01
  YS02001664YS02001661        0.01      0.01      0.15      0.01         0.01
  YS02001745YS02001748        0.01      0.01      0.23      0.01         0.01
  YS02001748YS02001751        0.26      0.26      0.37      0.01         0.01
  YS02001751YS02001754        0.37      0.37      0.55      0.01         0.01
  YS02001754YS02001757        0.59      0.59      0.92      0.01         0.01
  YS02001757CaochengTiaoxuchi        0.84      0.92      1.79      0.48         0.35
  YS02001759YS02001757        0.82      0.82      0.92      0.06         0.06
  YS02001762YS02001759        0.78      0.78      0.82      0.01         0.02
  YS02001765YS02001762        0.74      0.74      0.78      0.01         0.01
  YS02001767YS02001765        0.70      0.70      0.74      0.01         0.03
  YS02001770YS02001767        0.70      0.70      0.70      0.64         0.51
  YS02001774YS02001770        0.67      0.67      0.76      0.01         0.01
  YS02001779YS02001774        0.54      0.54      0.76      0.01         0.01
  YS02001783YS02001784        0.61      0.64      0.61      0.80         0.61
  YS02001784YS02001785        0.49      0.61      0.49      1.05         0.49
  YS02001786YS02001788        0.01      0.49      0.01      0.91         0.01
  YS02001790YS02001791        0.01      0.01      0.01      0.60         0.01
  YS02001793JiankangQianchi        0.01      0.01      7.12      0.01         0.01
  YS02001882YS02001884        0.58      0.58      0.59      0.01         0.01
  YS02001884YS02001887        0.61      0.61      0.62      0.01         0.01
  YS02001887YS02001890        0.64      0.64      0.65      0.18         0.01
  YS02001890YS02001895        0.56      0.56      0.67      0.01         0.01
  YS02001895YS02001898        0.56      0.56      0.56      0.01         0.01
  YS02001898YS02001901        0.57      0.57      0.61      0.01         0.01
  YS02001901YS02001904        0.60      0.60      0.61      0.01         0.01
  YS02001904YS02001907        0.60      0.60      0.90      0.01         0.01
  YS02001907YS02006553        1.07      1.07      1.14      0.01         0.01
  YS02001910YS02001907        0.67      0.67      0.88      0.05         0.05
  YS02001915YS02001910        0.57      0.57      0.67      0.01         0.01
  YS02001918YS02001915        0.48      0.48      0.57      0.01         0.01
  YS02001920YS02001918        0.48      0.48      0.50      0.01         0.01
  YS02001923YS02001920        0.44      0.44      0.50      0.01         0.01
  YS02001926YS02001923        0.18      0.19      0.23      0.01         0.01
  YS02001929YS02001926        0.07      0.07      0.23      0.01         0.01
  YS02006553YS02006556        0.77      0.77      0.90      0.01         0.01
  YS02006556YS02006558        0.83      0.83      0.92      0.01         0.01
  YS02006558YS02006561        0.52      0.75      0.52      1.00         0.52
  YS02006561YS02001783        0.45      0.45      0.64      0.01         0.01
  YS02163301YS02001633        1.05      1.05      1.09      0.01         0.01
  YS02163601YS02164001        1.01      1.01      1.10      0.11         0.01
  YS02164001YS02001641        1.00      1.01      1.00      0.77         0.71
  
  
  ***************
  Pumping Summary
  ***************
  
  ---------------------------------------------------------------------------------------------------------
                                                  Min       Avg       Max     Total     Power    % Time Off
                        Percent   Number of      Flow      Flow      Flow    Volume     Usage    Pump Curve
  Pump                 Utilized   Start-Ups       LPS       LPS       LPS  10^6 ltr     Kw-hr    Low   High
  ---------------------------------------------------------------------------------------------------------
  CC-R1                   27.46          21      0.00    683.00    683.00     5.402     97.88    0.0   39.9
  CC-R2                   17.61          12      0.00    683.00    683.00     3.465     64.24    0.0   26.7
  CC-S1                   32.29          15      0.00    200.00    200.00     1.860     10.96    0.0    0.0
  CC-S2                   32.65          17      0.00    200.00    200.00     1.881     11.16    0.0    0.0
  JK-R1                    8.31          13      0.00   1000.00   1000.00     2.393     24.18    0.0    0.0
  JK-R2                    2.58          15      0.00   1000.00   1000.00     0.743      5.55    0.0    0.0
  JK-S                    16.73          23      0.00    300.00    300.00     1.445     23.75    0.0    0.0
  

  Analysis begun on:  Wed Dec 25 13:04:09 2024
  Analysis ended on:  Wed Dec 25 13:04:11 2024
  Total elapsed time: 00:00:02