
  EPA STORM WATER MANAGEMENT MODEL - VERSION 5.2 (Build 5.2.4)
  PYSWMM TOOLKIT API - VERSION v1.0 (2023-11-27)
  ------------------------------------------------------------

  
  ****************
  Analysis Options
  ****************
  Flow Units ............... CMS
  Process Models:
    Rainfall/Runoff ........ YES
    RDII ................... NO
    Snowmelt ............... NO
    Groundwater ............ NO
    Flow Routing ........... YES
    Ponding Allowed ........ YES
    Water Quality .......... NO
  Infiltration Method ...... HORTON
  Flow Routing Method ...... DYNWAVE
  Surcharge Method ......... EXTRAN
  Starting Date ............ 01/01/2000 08:00:00
  Ending Date .............. 01/01/2000 16:00:00
  Antecedent Dry Days ...... 0.0
  Report Time Step ......... 00:05:00
  Wet Time Step ............ 00:05:00
  Dry Time Step ............ 00:05:00
  Routing Time Step ........ 30.00 sec
  Variable Time Step ....... YES
  Maximum Trials ........... 8
  Number of Threads ........ 1
  Head Tolerance ........... 0.001500 m
  
  
  **************************        Volume         Depth
  Runoff Quantity Continuity     hectare-m            mm
  **************************     ---------       -------
  Total Precipitation ......         3.817        21.184
  Evaporation Loss .........         0.000         0.000
  Infiltration Loss ........         0.000         0.000
  Surface Runoff ...........         3.837        21.296
  Final Storage ............         0.021         0.119
  Continuity Error (%) .....        -1.091
  
  
  **************************        Volume        Volume
  Flow Routing Continuity        hectare-m      10^6 ltr
  **************************     ---------     ---------
  Dry Weather Inflow .......         0.399         3.989
  Wet Weather Inflow .......         3.838        38.378
  Groundwater Inflow .......         0.000         0.000
  RDII Inflow ..............         0.000         0.000
  External Inflow ..........         0.000         0.000
  External Outflow .........         0.601         6.007
  Flooding Loss ............         2.595        25.946
  Evaporation Loss .........         0.000         0.000
  Exfiltration Loss ........         0.000         0.000
  Initial Stored Volume ....         0.000         0.000
  Final Stored Volume ......         0.811         8.106
  Continuity Error (%) .....         5.447
  
  
  *************************
  Highest Continuity Errors
  *************************
  Node T2 (30.72%)
  Node T4 (22.97%)
  Node T3 (20.57%)
  Node T6 (10.77%)
  Node J12 (10.39%)
  
  
  ***************************
  Time-Step Critical Elements
  ***************************
  Link C15 (38.28%)
  
  
  ********************************
  Highest Flow Instability Indexes
  ********************************
  Link C13 (11)
  Link C3 (7)
  Link C11 (6)
  Link C2 (6)
  Link C23 (6)
  
  
  *********************************
  Most Frequent Nonconverging Nodes
  *********************************
  Node Out_to_WWTP (3.97%)
  Node CSO7 (1.90%)
  Node J4 (1.55%)
  Node J15 (0.60%)
  Node CSO9 (0.52%)
  
  
  *************************
  Routing Time Step Summary
  *************************
  Minimum Time Step           :     0.33 sec
  Average Time Step           :    24.57 sec
  Maximum Time Step           :    30.00 sec
  % of Time in Steady State   :     0.00
  Average Iterations per Step :     2.73
  % of Steps Not Converging   :     3.97
  Time Step Frequencies       :
     30.000 - 13.228 sec      :    75.39 %
     13.228 -  5.833 sec      :    24.09 %
      5.833 -  2.572 sec      :     0.43 %
      2.572 -  1.134 sec      :     0.00 %
      1.134 -  0.500 sec      :     0.09 %
  
  
  ***************************
  Subcatchment Runoff Summary
  ***************************
  
  ------------------------------------------------------------------------------------------------------------------------------
                            Total      Total      Total      Total     Imperv       Perv      Total       Total     Peak  Runoff
                           Precip      Runon       Evap      Infil     Runoff     Runoff     Runoff      Runoff   Runoff   Coeff
  Subcatchment                 mm         mm         mm         mm         mm         mm         mm    10^6 ltr      CMS
  ------------------------------------------------------------------------------------------------------------------------------
  SC01                      34.48       0.00       0.00       0.00      34.84       0.00      34.84       11.50    10.59   1.010
  SC02                      10.67       0.00       0.00       0.00      10.70       0.00      10.70        2.43     1.24   1.003
  SC03                      15.97       0.00       0.00       0.00      16.09       0.00      16.09        2.90     1.20   1.008
  SC04                      10.67       0.00       0.00       0.00      10.56       0.00      10.56        0.73     0.27   0.990
  SC05                      34.48       0.00       0.00       0.00      34.82       0.00      34.82        5.43     4.96   1.010
  SC06                      16.09       0.00       0.00       0.00      16.01       0.00      16.01        5.21     2.95   0.995
  SC07                      10.67       0.00       0.00       0.00      10.56       0.00      10.56        0.50     0.19   0.990
  SC08                      15.97       0.00       0.00       0.00      15.97       0.00      15.97        4.47     1.51   1.000
  SC09                      16.09       0.00       0.00       0.00      16.17       0.00      16.17        1.12     0.83   1.005
  SC010                     34.48       0.00       0.00       0.00      34.78       0.00      34.78        4.09     3.60   1.009
  
  
  ******************
  Node Depth Summary
  ******************
  
  ---------------------------------------------------------------------------------
                                 Average  Maximum  Maximum  Time of Max    Reported
                                   Depth    Depth      HGL   Occurrence   Max Depth
  Node                 Type       Meters   Meters   Meters  days hr:min      Meters
  ---------------------------------------------------------------------------------
  J1                   JUNCTION     0.33     7.00    41.00     0  01:38        7.00
  J3                   JUNCTION     0.10     0.14    18.14     0  03:45        0.14
  CSO7                 JUNCTION     0.33     1.20    35.20     0  01:25        1.20
  J5                   JUNCTION     0.08     0.20    32.20     0  01:50        0.19
  CSO9                 JUNCTION     0.40     2.00    42.00     0  01:30        2.00
  J8                   JUNCTION     0.16     0.58    36.58     0  01:40        0.57
  CSO8                 JUNCTION     0.58     2.00    34.00     0  01:15        2.00
  J10                  JUNCTION     0.14     0.39    29.39     0  01:25        0.39
  J13                  JUNCTION     0.09     0.29    29.29     0  01:30        0.29
  J15                  JUNCTION     0.35     3.00    18.00     0  01:37        3.00
  J16                  JUNCTION     0.13     0.79    30.79     0  01:40        0.79
  CSO10                JUNCTION     0.28     1.00    31.00     0  01:18        1.00
  J12                  JUNCTION     0.72     1.04    27.04     0  02:28        1.02
  J4                   JUNCTION     0.23     0.99    33.99     0  01:27        0.75
  J6                   JUNCTION     0.06     0.07    25.07     0  03:20        0.07
  J2                   JUNCTION     0.07     0.08    25.08     0  02:40        0.08
  J19                  JUNCTION     0.15     0.17     8.17     0  01:33        0.17
  J9                   JUNCTION     0.08     0.11    29.11     0  02:35        0.11
  J14                  JUNCTION     0.11     0.15    20.15     0  06:03        0.15
  J17                  JUNCTION     0.06     0.08    20.08     0  03:05        0.08
  J7                   JUNCTION     0.10     0.23    39.23     0  02:07        0.23
  J11                  JUNCTION     0.13     0.30    31.30     0  02:14        0.30
  J18                  JUNCTION     0.07     0.16    29.16     0  02:03        0.16
  Out_to_WWTP          OUTFALL      0.15     0.17     6.17     0  03:55        0.17
  T5                   STORAGE      3.91     5.00    32.00     0  01:32        5.00
  T4                   STORAGE      3.60     5.00    32.00     0  02:27        5.00
  T6                   STORAGE      3.89     5.00    36.00     0  01:42        5.00
  T3                   STORAGE      3.75     5.00    27.00     0  02:22        5.00
  T2                   STORAGE      3.78     5.00    26.00     0  02:02        5.00
  T1                   STORAGE      3.67     5.00    15.00     0  01:32        5.00
  
  
  *******************
  Node Inflow Summary
  *******************
  
  -------------------------------------------------------------------------------------------------
                                  Maximum  Maximum                  Lateral       Total        Flow
                                  Lateral    Total  Time of Max      Inflow      Inflow     Balance
                                   Inflow   Inflow   Occurrence      Volume      Volume       Error
  Node                 Type           CMS      CMS  days hr:min    10^6 ltr    10^6 ltr     Percent
  -------------------------------------------------------------------------------------------------
  J1                   JUNCTION     4.973    4.973     0  01:40           6           6      -0.061
  J3                   JUNCTION     0.000    0.192     0  03:13           0        3.52       1.095
  CSO7                 JUNCTION     0.197    0.197     0  01:50       0.795       0.795       0.091
  J5                   JUNCTION     0.276    0.350     0  01:50       0.858        1.47       0.081
  CSO9                 JUNCTION     0.832    0.832     0  01:40        1.31        1.31       0.020
  J8                   JUNCTION     2.981    3.106     0  01:40        6.16        6.85       0.074
  CSO8                 JUNCTION     1.519    1.519     0  01:45        4.77        4.77       0.015
  J10                  JUNCTION     1.215    1.700     0  01:25        3.28        5.95      -0.074
  J13                  JUNCTION     1.258    1.258     0  01:30        2.91        2.91      -0.292
  J15                  JUNCTION     0.000   10.841     0  01:40           0        17.2       0.318
  J16                  JUNCTION    10.610   10.610     0  01:40        12.1        12.1      -0.113
  CSO10                JUNCTION     3.607    3.607     0  01:40        4.23        4.23       0.007
  J12                  JUNCTION     0.000    1.692     0  01:25           0        7.34      11.594
  J4                   JUNCTION     0.000    0.085     0  01:25           0       0.618       0.535
  J6                   JUNCTION     0.000    0.028     0  02:30           0       0.512       0.542
  J2                   JUNCTION     0.000    0.039     0  01:33           0       0.922       0.538
  J19                  JUNCTION     0.000    0.271     0  01:33           0        6.02       0.177
  J9                   JUNCTION     0.000    0.075     0  02:05           0        1.24       1.435
  J14                  JUNCTION     0.000    0.124     0  02:23           0         2.1       0.373
  J17                  JUNCTION     0.000    0.033     0  02:45           0       0.601       1.241
  J7                   JUNCTION     0.000    0.127     0  02:07           0       0.688       0.442
  J11                  JUNCTION     0.000    0.487     0  02:14           0        2.68       0.284
  J18                  JUNCTION     0.000    0.202     0  01:58           0        1.06       0.043
  Out_to_WWTP          OUTFALL      0.000    0.271     0  01:34           0        6.01       0.000
  T5                   STORAGE      0.000    4.674     0  01:40           0        5.98       6.159
  T4                   STORAGE      0.000    0.342     0  01:51           0        1.47      29.812
  T6                   STORAGE      0.000    3.053     0  01:40           0        6.84      12.070
  T3                   STORAGE      0.000    1.652     0  01:27           0        6.58      25.890
  T2                   STORAGE      0.000    1.236     0  01:30           0        2.91      44.348
  T1                   STORAGE      0.000    7.012     0  01:44           0        16.1       3.079
  
  
  **********************
  Node Surcharge Summary
  **********************
  
  Surcharging occurs when water rises above the top of the highest conduit.
  ---------------------------------------------------------------------
                                               Max. Height   Min. Depth
                                   Hours       Above Crown    Below Rim
  Node                 Type      Surcharged         Meters       Meters
  ---------------------------------------------------------------------
  J1                   JUNCTION        0.19          6.000        0.000
  CSO7                 JUNCTION        0.95          0.945        0.000
  CSO9                 JUNCTION        0.75          1.682        0.000
  CSO8                 JUNCTION        1.12          1.547        0.000
  J15                  JUNCTION        0.14          1.000        0.000
  CSO10                JUNCTION        0.86          0.560        0.000
  J4                   JUNCTION        0.92          0.693        1.007
  
  
  *********************
  Node Flooding Summary
  *********************
  
  Flooding refers to all water that overflows a node, whether it ponds or not.
  --------------------------------------------------------------------------
                                                             Total   Maximum
                                 Maximum   Time of Max       Flood    Ponded
                        Hours       Rate    Occurrence      Volume     Depth
  Node                 Flooded       CMS   days hr:min    10^6 ltr    Meters
  --------------------------------------------------------------------------
  J1                      0.04     0.284      0  01:40       0.019     5.000
  CSO7                    0.83     0.123      0  01:50       0.176     0.000
  CSO9                    0.61     0.701      0  01:40       0.626     0.000
  CSO8                    0.99     1.024      0  01:45       2.090     0.000
  J15                     0.11     4.120      0  01:37       1.051     0.000
  CSO10                   0.81     3.392      0  01:40       3.167     0.000
  T5                      2.06     4.635      0  01:40       4.323     0.000
  T4                      1.82     0.102      0  02:27       0.154     0.000
  T6                      3.48     2.855      0  01:42       4.302     0.000
  T3                      0.82     0.660      0  02:31       0.401     0.000
  T2                      1.73     0.539      0  02:02       0.476     0.000
  T1                      2.26     6.741      0  01:44       9.151     0.000
  
  
  **********************
  Storage Volume Summary
  **********************
  
  ------------------------------------------------------------------------------------------------
                         Average    Avg   Evap  Exfil     Maximum    Max    Time of Max    Maximum
                          Volume   Pcnt   Pcnt   Pcnt      Volume   Pcnt     Occurrence    Outflow
  Storage Unit           1000 m³   Full   Loss   Loss     1000 m³   Full    days hr:min        CMS
  ------------------------------------------------------------------------------------------------
  T5                       0.391   78.1    0.0    0.0       0.500  100.0       0  01:32      0.039
  T4                       0.360   71.9    0.0    0.0       0.500  100.0       0  02:27      0.028
  T6                       0.467   77.9    0.0    0.0       0.600  100.0       0  01:42      0.075
  T3                       1.950   75.0    0.0    0.0       2.600  100.0       0  02:22      0.443
  T2                       0.757   75.7    0.0    0.0       1.000  100.0       0  02:02      0.033
  T1                       0.514   73.4    0.0    0.0       0.700  100.0       0  01:32      0.271
  
  
  ***********************
  Outfall Loading Summary
  ***********************
  
  -----------------------------------------------------------
                         Flow       Avg       Max       Total
                         Freq      Flow      Flow      Volume
  Outfall Node           Pcnt       CMS       CMS    10^6 ltr
  -----------------------------------------------------------
  Out_to_WWTP           99.05     0.216     0.271       6.007
  -----------------------------------------------------------
  System                99.05     0.216     0.271       6.007
  
  
  ********************
  Link Flow Summary
  ********************
  
  -----------------------------------------------------------------------------
                                 Maximum  Time of Max   Maximum    Max/    Max/
                                  |Flow|   Occurrence   |Veloc|    Full    Full
  Link                 Type          CMS  days hr:min     m/sec    Flow   Depth
  -----------------------------------------------------------------------------
  C1                   CONDUIT     0.039     0  02:22      1.26    0.01    0.11
  C6                   CONDUIT     0.073     0  01:50      1.29    1.17    0.83
  C2                   CONDUIT     0.028     0  03:20      1.00    0.03    0.18
  C9                   CONDUIT     0.127     0  02:07      1.17    0.43    0.73
  C16                  CONDUIT     0.487     0  01:41      1.83    0.05    0.17
  C3                   CONDUIT     0.125     0  04:53      1.90    0.05    0.14
  C19                  CONDUIT     0.033     0  03:05      0.69    0.01    0.53
  C11                  CONDUIT     0.191     0  03:45      1.79    0.01    0.53
  C20                  CONDUIT    10.538     0  01:40      6.12    0.33    0.70
  C22                  CONDUIT     0.202     0  01:57      1.70    0.09    0.60
  C12                  CONDUIT     0.075     0  02:35      0.59    0.01    0.29
  C17                  CONDUIT     1.673     0  01:25      3.78    0.08    0.30
  C10                  CONDUIT     3.053     0  01:40      2.34    0.31    0.69
  C13                  CONDUIT     1.652     0  01:27      2.85    0.10    0.76
  C18                  CONDUIT     1.236     0  01:30      3.36    0.05    0.57
  C23                  CONDUIT     7.012     0  01:44      3.97    0.77    1.00
  C4                   CONDUIT     4.674     0  01:40      5.95    1.13    1.00
  C7                   CONDUIT     0.342     0  01:51      1.44    0.08    0.60
  C14                  CONDUIT     0.271     0  01:34      2.08    0.02    0.09
  C5                   CONDUIT     0.085     0  01:25      1.67    1.46    1.00
  C8                   CONDUIT     0.127     0  02:07      1.89    1.60    0.86
  C15                  CONDUIT     0.487     0  02:14      3.59    1.55    0.83
  C21                  CONDUIT     0.202     0  01:58      1.89    1.16    0.69
  V4                   ORIFICE     0.028     0  02:30                      0.35
  V5                   ORIFICE     0.039     0  01:33                      1.00
  V1                   ORIFICE     0.271     0  01:33                      1.00
  V6                   ORIFICE     0.075     0  02:05                      0.43
  V3                   ORIFICE     0.124     0  02:23                      0.65
  V2                   ORIFICE     0.033     0  02:45                      0.24
  
  
  ***************************
  Flow Classification Summary
  ***************************
  
  -------------------------------------------------------------------------------------
                      Adjusted    ---------- Fraction of Time in Flow Class ---------- 
                       /Actual         Up    Down  Sub   Sup   Up    Down  Norm  Inlet 
  Conduit               Length    Dry  Dry   Dry   Crit  Crit  Crit  Crit  Ltd   Ctrl  
  -------------------------------------------------------------------------------------
  C1                      1.00   0.00  0.00  0.00  0.04  0.96  0.00  0.00  0.94  0.00
  C6                      1.00   0.00  0.00  0.00  0.14  0.86  0.00  0.00  0.00  0.00
  C2                      1.00   0.00  0.00  0.00  0.53  0.46  0.00  0.00  0.98  0.00
  C9                      1.00   0.00  0.00  0.00  1.00  0.00  0.00  0.00  1.00  0.00
  C16                     1.00   0.00  0.00  0.00  0.69  0.31  0.00  0.00  0.62  0.00
  C3                      1.00   0.00  0.01  0.00  0.05  0.94  0.00  0.00  0.52  0.00
  C19                     1.00   0.00  0.00  0.00  1.00  0.00  0.00  0.00  1.00  0.00
  C11                     1.00   0.00  0.00  0.00  0.23  0.77  0.00  0.00  1.00  0.00
  C20                     1.00   0.00  0.00  0.00  0.64  0.36  0.00  0.00  0.97  0.00
  C22                     1.00   0.00  0.00  0.00  0.92  0.08  0.00  0.00  1.00  0.00
  C12                     1.00   0.00  0.00  0.00  1.00  0.00  0.00  0.00  1.00  0.00
  C17                     1.00   0.00  0.00  0.00  0.73  0.27  0.00  0.00  0.94  0.00
  C10                     1.00   0.00  0.00  0.00  0.96  0.04  0.00  0.00  0.97  0.00
  C13                     1.00   0.00  0.00  0.00  0.85  0.15  0.00  0.00  0.15  0.00
  C18                     1.00   0.00  0.00  0.00  0.93  0.07  0.00  0.00  0.97  0.00
  C23                     1.00   0.00  0.00  0.00  0.86  0.14  0.00  0.00  0.89  0.00
  C4                      1.00   0.00  0.00  0.00  0.94  0.06  0.00  0.00  0.94  0.00
  C7                      1.00   0.00  0.00  0.00  0.94  0.06  0.00  0.00  0.97  0.00
  C14                     1.00   0.00  0.01  0.00  0.01  0.98  0.00  0.00  0.27  0.00
  C5                      1.00   0.00  0.00  0.00  0.94  0.06  0.00  0.00  0.84  0.00
  C8                      1.00   0.00  0.00  0.00  0.10  0.90  0.00  0.00  0.00  0.00
  C15                     1.00   0.00  0.00  0.00  0.00  1.00  0.00  0.00  0.00  0.00
  C21                     1.00   0.00  0.00  0.00  0.00  1.00  0.00  0.00  0.00  0.00
  
  
  *************************
  Conduit Surcharge Summary
  *************************
  
  ----------------------------------------------------------------------------
                                                           Hours        Hours 
                         --------- Hours Full --------   Above Full   Capacity
  Conduit                Both Ends  Upstream  Dnstream   Normal Flow   Limited
  ----------------------------------------------------------------------------
  C6                          0.01      0.92      0.01      0.84         0.01
  C9                          0.01      0.01      0.15      0.01         0.01
  C19                         0.01      0.01      0.34      0.01         0.01
  C11                         0.01      0.01      0.13      0.01         0.01
  C20                         0.01      0.01      0.13      0.01         0.01
  C22                         0.01      0.01      0.39      0.01         0.01
  C10                         0.01      0.01      6.32      0.01         0.01
  C13                         0.01      0.01      6.31      0.01         0.01
  C18                         0.01      0.01      6.33      0.01         0.01
  C23                         0.25      0.25      6.48      0.01         0.01
  C4                          0.19      0.19      6.54      0.10         0.10
  C7                          0.01      0.01      6.37      0.01         0.01
  C5                          0.92      0.95      1.02      0.97         0.90
  C8                          0.01      0.75      0.01      0.77         0.01
  C15                         0.01      1.12      0.01      1.14         0.01
  C21                         0.01      0.86      0.01      0.84         0.01
  

  Analysis begun on:  Sun Oct 20 17:11:06 2024
  Analysis ended on:  Sun Oct 20 17:11:06 2024
  Total elapsed time: < 1 sec