
  EPA STORM WATER MANAGEMENT MODEL - VERSION 5.2 (Build 5.2.4)
  PYSWMM TOOLKIT API - VERSION v1.0 (2023-11-27)
  ------------------------------------------------------------

  
  ****************
  Analysis Options
  ****************
  Flow Units ............... CMS
  Process Models:
    Rainfall/Runoff ........ YES
    RDII ................... NO
    Snowmelt ............... NO
    Groundwater ............ NO
    Flow Routing ........... YES
    Ponding Allowed ........ YES
    Water Quality .......... NO
  Infiltration Method ...... HORTON
  Flow Routing Method ...... DYNWAVE
  Surcharge Method ......... EXTRAN
  Starting Date ............ 01/01/2000 08:00:00
  Ending Date .............. 01/01/2000 16:00:00
  Antecedent Dry Days ...... 0.0
  Report Time Step ......... 00:05:00
  Wet Time Step ............ 00:05:00
  Dry Time Step ............ 00:05:00
  Routing Time Step ........ 30.00 sec
  Variable Time Step ....... YES
  Maximum Trials ........... 8
  Number of Threads ........ 1
  Head Tolerance ........... 0.001500 m
  
  
  **************************        Volume         Depth
  Runoff Quantity Continuity     hectare-m            mm
  **************************     ---------       -------
  Total Precipitation ......         3.964        21.999
  Evaporation Loss .........         0.000         0.000
  Infiltration Loss ........         0.000         0.000
  Surface Runoff ...........         3.974        22.054
  Final Storage ............         0.022         0.122
  Continuity Error (%) .....        -0.808
  
  
  **************************        Volume        Volume
  Flow Routing Continuity        hectare-m      10^6 ltr
  **************************     ---------     ---------
  Dry Weather Inflow .......         0.399         3.989
  Wet Weather Inflow .......         3.972        39.716
  Groundwater Inflow .......         0.000         0.000
  RDII Inflow ..............         0.000         0.000
  External Inflow ..........         0.000         0.000
  External Outflow .........         0.626         6.258
  Flooding Loss ............         2.701        27.013
  Evaporation Loss .........         0.000         0.000
  Exfiltration Loss ........         0.000         0.000
  Initial Stored Volume ....         0.000         0.000
  Final Stored Volume ......         0.799         7.990
  Continuity Error (%) .....         5.594
  
  
  *************************
  Highest Continuity Errors
  *************************
  Node T2 (21.46%)
  Node T3 (18.84%)
  Node T4 (17.71%)
  Node T6 (13.31%)
  Node J12 (8.45%)
  
  
  ***************************
  Time-Step Critical Elements
  ***************************
  Link C15 (30.81%)
  Link C21 (5.08%)
  Link C8 (3.79%)
  
  
  ********************************
  Highest Flow Instability Indexes
  ********************************
  Link C13 (11)
  Link C12 (7)
  Link C3 (6)
  Link C2 (5)
  Link C19 (5)
  
  
  *********************************
  Most Frequent Nonconverging Nodes
  *********************************
  Node Out_to_WWTP (2.84%)
  Node CSO7 (1.46%)
  Node J4 (1.29%)
  Node CSO9 (0.77%)
  Node CSO8 (0.26%)
  
  
  *************************
  Routing Time Step Summary
  *************************
  Minimum Time Step           :     0.30 sec
  Average Time Step           :    24.53 sec
  Maximum Time Step           :    30.00 sec
  % of Time in Steady State   :     0.00
  Average Iterations per Step :     2.95
  % of Steps Not Converging   :     2.84
  Time Step Frequencies       :
     30.000 - 13.228 sec      :    78.79 %
     13.228 -  5.833 sec      :    20.69 %
      5.833 -  2.572 sec      :     0.26 %
      2.572 -  1.134 sec      :     0.17 %
      1.134 -  0.500 sec      :     0.09 %
  
  
  ***************************
  Subcatchment Runoff Summary
  ***************************
  
  ------------------------------------------------------------------------------------------------------------------------------
                            Total      Total      Total      Total     Imperv       Perv      Total       Total     Peak  Runoff
                           Precip      Runon       Evap      Infil     Runoff     Runoff     Runoff      Runoff   Runoff   Coeff
  Subcatchment                 mm         mm         mm         mm         mm         mm         mm    10^6 ltr      CMS
  ------------------------------------------------------------------------------------------------------------------------------
  SC01                      33.70       0.00       0.00       0.00      33.97       0.00      33.97       11.21     4.39   1.008
  SC02                      15.99       0.00       0.00       0.00      15.98       0.00      15.98        3.64     1.93   1.000
  SC03                      18.78       0.00       0.00       0.00      18.92       0.00      18.92        3.41     2.50   1.008
  SC04                      15.99       0.00       0.00       0.00      15.88       0.00      15.88        1.10     0.48   0.993
  SC05                      33.70       0.00       0.00       0.00      33.95       0.00      33.95        5.30     2.05   1.007
  SC06                      13.09       0.00       0.00       0.00      12.88       0.00      12.88        4.19     0.78   0.984
  SC07                      15.99       0.00       0.00       0.00      15.88       0.00      15.88        0.75     0.33   0.993
  SC08                      18.78       0.00       0.00       0.00      18.83       0.00      18.83        5.27     3.46   1.003
  SC09                      13.09       0.00       0.00       0.00      12.99       0.00      12.99        0.90     0.20   0.993
  SC010                     33.70       0.00       0.00       0.00      33.88       0.00      33.88        3.98     1.49   1.005
  
  
  ******************
  Node Depth Summary
  ******************
  
  ---------------------------------------------------------------------------------
                                 Average  Maximum  Maximum  Time of Max    Reported
                                   Depth    Depth      HGL   Occurrence   Max Depth
  Node                 Type       Meters   Meters   Meters  days hr:min      Meters
  ---------------------------------------------------------------------------------
  J1                   JUNCTION     0.15     0.62    34.62     0  01:20        0.62
  J3                   JUNCTION     0.11     0.14    18.14     0  02:15        0.14
  CSO7                 JUNCTION     0.35     1.20    35.20     0  01:23        1.20
  J5                   JUNCTION     0.09     0.25    32.25     0  01:40        0.25
  CSO9                 JUNCTION     0.57     2.00    42.00     0  01:13        2.00
  J8                   JUNCTION     0.16     0.31    36.31     0  01:35        0.31
  CSO8                 JUNCTION     0.53     2.00    34.00     0  01:10        2.00
  J10                  JUNCTION     0.14     0.52    29.52     0  01:25        0.52
  J13                  JUNCTION     0.10     0.36    29.36     0  01:40        0.36
  J15                  JUNCTION     0.29     1.00    16.00     0  01:21        0.95
  J16                  JUNCTION     0.14     0.50    30.50     0  01:20        0.50
  CSO10                JUNCTION     0.37     1.00    31.00     0  01:02        1.00
  J12                  JUNCTION     0.74     1.05    27.05     0  02:08        1.03
  J4                   JUNCTION     0.23     1.01    34.01     0  01:25        0.74
  J6                   JUNCTION     0.06     0.07    25.07     0  04:10        0.07
  J2                   JUNCTION     0.07     0.08    25.08     0  01:18        0.08
  J19                  JUNCTION     0.15     0.17     8.17     0  01:16        0.17
  J9                   JUNCTION     0.08     0.11    29.11     0  02:10        0.11
  J14                  JUNCTION     0.11     0.15    20.15     0  03:23        0.15
  J17                  JUNCTION     0.06     0.08    20.08     0  03:35        0.08
  J7                   JUNCTION     0.12     0.23    39.23     0  02:08        0.23
  J11                  JUNCTION     0.13     0.30    31.30     0  02:01        0.30
  J18                  JUNCTION     0.08     0.16    29.16     0  02:22        0.16
  Out_to_WWTP          OUTFALL      0.15     0.17     6.17     0  01:16        0.17
  T5                   STORAGE      4.14     5.00    32.00     0  01:15        5.00
  T4                   STORAGE      3.75     5.00    32.00     0  01:57        5.00
  T6                   STORAGE      4.02     5.00    36.00     0  01:41        5.00
  T3                   STORAGE      3.92     5.00    27.00     0  02:08        5.00
  T2                   STORAGE      3.88     5.00    26.00     0  01:43        5.00
  T1                   STORAGE      3.95     5.00    15.00     0  01:15        5.00
  
  
  *******************
  Node Inflow Summary
  *******************
  
  -------------------------------------------------------------------------------------------------
                                  Maximum  Maximum                  Lateral       Total        Flow
                                  Lateral    Total  Time of Max      Inflow      Inflow     Balance
                                   Inflow   Inflow   Occurrence      Volume      Volume       Error
  Node                 Type           CMS      CMS  days hr:min    10^6 ltr    10^6 ltr     Percent
  -------------------------------------------------------------------------------------------------
  J1                   JUNCTION     2.071    2.071     0  01:20        5.85        5.85      -0.011
  J3                   JUNCTION     0.000    0.191     0  04:08           0        3.75       0.844
  CSO7                 JUNCTION     0.337    0.337     0  01:40        1.05        1.05       0.045
  J5                   JUNCTION     0.480    0.555     0  01:40        1.23        1.89       0.070
  CSO9                 JUNCTION     0.211    0.211     0  01:30        1.09        1.09       0.052
  J8                   JUNCTION     0.813    0.940     0  01:35        5.15        6.12       0.070
  CSO8                 JUNCTION     3.468    3.468     0  01:25        5.57        5.57       0.006
  J10                  JUNCTION     2.511    2.997     0  01:25        3.79        6.38      -0.069
  J13                  JUNCTION     1.949    1.949     0  01:40        4.11        4.11      -0.171
  J15                  JUNCTION     0.000    4.648     0  01:20           0        17.5       0.467
  J16                  JUNCTION     4.406    4.406     0  01:20        11.7        11.7      -0.049
  CSO10                JUNCTION     1.497    1.497     0  01:20        4.12        4.12       0.004
  J12                  JUNCTION     0.000    3.016     0  01:25           0        7.74       9.226
  J4                   JUNCTION     0.000    0.085     0  01:23           0       0.667       0.501
  J6                   JUNCTION     0.000    0.028     0  02:05           0       0.506       0.512
  J2                   JUNCTION     0.000    0.039     0  01:15           0        0.95       0.507
  J19                  JUNCTION     0.000    0.271     0  01:15           0        6.27       0.173
  J9                   JUNCTION     0.000    0.075     0  01:42           0         1.3       0.910
  J14                  JUNCTION     0.000    0.124     0  02:09           0         2.3       0.201
  J17                  JUNCTION     0.000    0.033     0  01:43           0         0.6       0.869
  J7                   JUNCTION     0.000    0.127     0  02:08           0       0.978       0.327
  J11                  JUNCTION     0.000    0.486     0  02:01           0        2.59       0.300
  J18                  JUNCTION     0.000    0.202     0  01:43           0        1.42       0.060
  Out_to_WWTP          OUTFALL      0.000    0.271     0  01:16           0        6.26       0.000
  T5                   STORAGE      0.000    2.058     0  01:20           0        5.85       6.254
  T4                   STORAGE      0.000    0.551     0  01:40           0        1.89      21.515
  T6                   STORAGE      0.000    0.939     0  01:35           0        6.12      15.355
  T3                   STORAGE      0.000    2.996     0  01:25           0        7.09      23.211
  T2                   STORAGE      0.000    1.938     0  01:40           0        4.12      27.318
  T1                   STORAGE      0.000    4.142     0  01:22           0        17.4       3.147
  
  
  **********************
  Node Surcharge Summary
  **********************
  
  Surcharging occurs when water rises above the top of the highest conduit.
  ---------------------------------------------------------------------
                                               Max. Height   Min. Depth
                                   Hours       Above Crown    Below Rim
  Node                 Type      Surcharged         Meters       Meters
  ---------------------------------------------------------------------
  CSO7                 JUNCTION        1.11          0.945        0.000
  CSO9                 JUNCTION        1.37          1.682        0.000
  CSO8                 JUNCTION        1.03          1.547        0.000
  CSO10                JUNCTION        1.50          0.560        0.000
  J4                   JUNCTION        1.09          0.707        0.993
  
  
  *********************
  Node Flooding Summary
  *********************
  
  Flooding refers to all water that overflows a node, whether it ponds or not.
  --------------------------------------------------------------------------
                                                             Total   Maximum
                                 Maximum   Time of Max       Flood    Ponded
                        Hours       Rate    Occurrence      Volume     Depth
  Node                 Flooded       CMS   days hr:min    10^6 ltr    Meters
  --------------------------------------------------------------------------
  CSO7                    1.00     0.261      0  01:40       0.380     0.000
  CSO9                    0.91     0.083      0  01:30       0.116     0.000
  CSO8                    0.85     2.981      0  01:25       2.977     0.000
  CSO10                   1.45     1.291      0  01:20       2.698     0.000
  T5                      2.13     2.018      0  01:20       4.172     0.000
  T4                      2.65     0.293      0  01:57       0.583     0.000
  T6                      3.75     0.814      0  01:41       3.418     0.000
  T3                      1.03     0.880      0  02:11       0.847     0.000
  T2                      2.30     1.679      0  01:43       1.678     0.000
  T1                      1.94     3.871      0  01:22      10.129     0.000
  
  
  **********************
  Storage Volume Summary
  **********************
  
  ------------------------------------------------------------------------------------------------
                         Average    Avg   Evap  Exfil     Maximum    Max    Time of Max    Maximum
                          Volume   Pcnt   Pcnt   Pcnt      Volume   Pcnt     Occurrence    Outflow
  Storage Unit           1000 m³   Full   Loss   Loss     1000 m³   Full    days hr:min        CMS
  ------------------------------------------------------------------------------------------------
  T5                       0.414   82.8    0.0    0.0       0.500  100.0       0  01:15      0.039
  T4                       0.375   75.0    0.0    0.0       0.500  100.0       0  01:57      0.028
  T6                       0.483   80.5    0.0    0.0       0.600  100.0       0  01:41      0.075
  T3                       2.039   78.4    0.0    0.0       2.600  100.0       0  02:08      0.270
  T2                       0.777   77.7    0.0    0.0       1.000  100.0       0  01:43      0.033
  T1                       0.553   79.0    0.0    0.0       0.700  100.0       0  01:15      0.271
  
  
  ***********************
  Outfall Loading Summary
  ***********************
  
  -----------------------------------------------------------
                         Flow       Avg       Max       Total
                         Freq      Flow      Flow      Volume
  Outfall Node           Pcnt       CMS       CMS    10^6 ltr
  -----------------------------------------------------------
  Out_to_WWTP           99.05     0.228     0.271       6.258
  -----------------------------------------------------------
  System                99.05     0.228     0.271       6.258
  
  
  ********************
  Link Flow Summary
  ********************
  
  -----------------------------------------------------------------------------
                                 Maximum  Time of Max   Maximum    Max/    Max/
                                  |Flow|   Occurrence   |Veloc|    Full    Full
  Link                 Type          CMS  days hr:min     m/sec    Flow   Depth
  -----------------------------------------------------------------------------
  C1                   CONDUIT     0.040     0  01:21      1.44    0.01    0.11
  C6                   CONDUIT     0.075     0  01:40      1.29    1.20    0.91
  C2                   CONDUIT     0.028     0  04:10      1.00    0.03    0.18
  C9                   CONDUIT     0.127     0  02:08      1.32    0.43    0.55
  C16                  CONDUIT     0.487     0  01:50      1.80    0.05    0.20
  C3                   CONDUIT     0.125     0  04:28      1.89    0.05    0.14
  C19                  CONDUIT     0.033     0  03:35      0.69    0.01    0.52
  C11                  CONDUIT     0.190     0  02:15      1.81    0.01    0.27
  C20                  CONDUIT     4.383     0  01:20      5.93    0.14    0.37
  C22                  CONDUIT     0.202     0  01:42      1.58    0.09    0.60
  C12                  CONDUIT     0.075     0  02:10      0.57    0.01    0.29
  C17                  CONDUIT     2.995     0  01:25      4.50    0.15    0.32
  C10                  CONDUIT     0.939     0  01:35      1.66    0.10    0.60
  C13                  CONDUIT     2.996     0  01:25      2.90    0.18    0.76
  C18                  CONDUIT     1.938     0  01:40      3.36    0.07    0.59
  C23                  CONDUIT     4.142     0  01:22      3.18    0.46    0.83
  C4                   CONDUIT     2.058     0  01:20      3.06    0.50    0.81
  C7                   CONDUIT     0.551     0  01:40      1.44    0.14    0.62
  C14                  CONDUIT     0.271     0  01:16      2.08    0.02    0.09
  C5                   CONDUIT     0.085     0  01:23      1.67    1.45    1.00
  C8                   CONDUIT     0.127     0  02:08      1.79    1.60    0.86
  C15                  CONDUIT     0.486     0  02:01      3.58    1.55    0.83
  C21                  CONDUIT     0.202     0  01:43      1.97    1.16    0.69
  V4                   ORIFICE     0.028     0  02:05                      0.35
  V5                   ORIFICE     0.039     0  01:15                      1.00
  V1                   ORIFICE     0.271     0  01:15                      1.00
  V6                   ORIFICE     0.075     0  01:42                      0.43
  V3                   ORIFICE     0.124     0  02:09                      0.65
  V2                   ORIFICE     0.033     0  01:43                      0.24
  
  
  ***************************
  Flow Classification Summary
  ***************************
  
  -------------------------------------------------------------------------------------
                      Adjusted    ---------- Fraction of Time in Flow Class ---------- 
                       /Actual         Up    Down  Sub   Sup   Up    Down  Norm  Inlet 
  Conduit               Length    Dry  Dry   Dry   Crit  Crit  Crit  Crit  Ltd   Ctrl  
  -------------------------------------------------------------------------------------
  C1                      1.00   0.00  0.00  0.00  0.09  0.91  0.00  0.00  0.91  0.00
  C6                      1.00   0.00  0.00  0.00  0.16  0.84  0.00  0.00  0.00  0.00
  C2                      1.00   0.00  0.00  0.00  0.63  0.37  0.00  0.00  0.99  0.00
  C9                      1.00   0.00  0.00  0.00  1.00  0.00  0.00  0.00  1.00  0.00
  C16                     1.00   0.00  0.00  0.00  0.68  0.32  0.00  0.00  0.58  0.00
  C3                      1.00   0.00  0.01  0.00  0.05  0.94  0.00  0.00  0.46  0.00
  C19                     1.00   0.00  0.00  0.00  1.00  0.00  0.00  0.00  1.00  0.00
  C11                     1.00   0.00  0.00  0.00  0.31  0.69  0.00  0.00  1.00  0.00
  C20                     1.00   0.00  0.00  0.00  0.62  0.38  0.00  0.00  0.97  0.00
  C22                     1.00   0.00  0.00  0.00  0.93  0.07  0.00  0.00  1.00  0.00
  C12                     1.00   0.00  0.00  0.00  1.00  0.00  0.00  0.00  1.00  0.00
  C17                     1.00   0.00  0.00  0.00  0.77  0.23  0.00  0.00  0.93  0.00
  C10                     1.00   0.00  0.00  0.00  0.96  0.04  0.00  0.00  0.98  0.00
  C13                     1.00   0.00  0.00  0.00  0.84  0.16  0.00  0.00  0.11  0.00
  C18                     1.00   0.00  0.00  0.00  0.95  0.05  0.00  0.00  0.97  0.00
  C23                     1.00   0.00  0.00  0.00  0.86  0.14  0.00  0.00  0.86  0.00
  C4                      1.00   0.00  0.00  0.00  0.93  0.07  0.00  0.00  0.94  0.00
  C7                      1.00   0.00  0.00  0.00  0.95  0.05  0.00  0.00  0.97  0.00
  C14                     1.00   0.00  0.01  0.00  0.01  0.98  0.00  0.00  0.33  0.00
  C5                      1.00   0.00  0.00  0.00  0.93  0.07  0.00  0.00  0.84  0.00
  C8                      1.00   0.00  0.00  0.00  0.20  0.80  0.00  0.00  0.00  0.00
  C15                     1.00   0.00  0.00  0.00  0.00  1.00  0.00  0.00  0.00  0.00
  C21                     1.00   0.00  0.00  0.00  0.00  1.00  0.00  0.00  0.00  0.00
  
  
  *************************
  Conduit Surcharge Summary
  *************************
  
  ----------------------------------------------------------------------------
                                                           Hours        Hours 
                         --------- Hours Full --------   Above Full   Capacity
  Conduit                Both Ends  Upstream  Dnstream   Normal Flow   Limited
  ----------------------------------------------------------------------------
  C6                          0.01      1.09      0.01      1.00         0.01
  C19                         0.01      0.01      0.01      0.01         0.01
  C22                         0.01      0.01      0.17      0.01         0.01
  C10                         0.01      0.01      6.56      0.01         0.01
  C13                         0.01      0.01      6.49      0.01         0.01
  C18                         0.01      0.01      6.39      0.01         0.01
  C23                         0.01      0.01      6.77      0.01         0.01
  C4                          0.01      0.01      6.82      0.01         0.01
  C7                          0.01      0.01      6.42      0.01         0.01
  C5                          1.08      1.11      1.18      1.11         1.06
  C8                          0.01      1.37      0.01      1.38         0.01
  C15                         0.01      1.03      0.01      1.04         0.01
  C21                         0.01      1.50      0.01      1.48         0.01
  

  Analysis begun on:  Sun Oct 20 17:00:41 2024
  Analysis ended on:  Sun Oct 20 17:00:42 2024
  Total elapsed time: 00:00:01