
  EPA STORM WATER MANAGEMENT MODEL - VERSION 5.2 (Build 5.2.4)
  PYSWMM TOOLKIT API - VERSION v1.0 (2023-11-27)
  ------------------------------------------------------------

  
  ****************
  Analysis Options
  ****************
  Flow Units ............... CMS
  Process Models:
    Rainfall/Runoff ........ YES
    RDII ................... NO
    Snowmelt ............... NO
    Groundwater ............ NO
    Flow Routing ........... YES
    Ponding Allowed ........ YES
    Water Quality .......... NO
  Infiltration Method ...... HORTON
  Flow Routing Method ...... DYNWAVE
  Surcharge Method ......... EXTRAN
  Starting Date ............ 01/01/2000 08:00:00
  Ending Date .............. 01/01/2000 16:00:00
  Antecedent Dry Days ...... 0.0
  Report Time Step ......... 00:05:00
  Wet Time Step ............ 00:05:00
  Dry Time Step ............ 00:05:00
  Routing Time Step ........ 30.00 sec
  Variable Time Step ....... YES
  Maximum Trials ........... 8
  Number of Threads ........ 1
  Head Tolerance ........... 0.001500 m
  
  
  **************************        Volume         Depth
  Runoff Quantity Continuity     hectare-m            mm
  **************************     ---------       -------
  Total Precipitation ......         4.262        23.653
  Evaporation Loss .........         0.000         0.000
  Infiltration Loss ........         0.000         0.000
  Surface Runoff ...........         4.260        23.643
  Final Storage ............         0.023         0.127
  Continuity Error (%) .....        -0.496
  
  
  **************************        Volume        Volume
  Flow Routing Continuity        hectare-m      10^6 ltr
  **************************     ---------     ---------
  Dry Weather Inflow .......         0.399         3.989
  Wet Weather Inflow .......         4.258        42.582
  Groundwater Inflow .......         0.000         0.000
  RDII Inflow ..............         0.000         0.000
  External Inflow ..........         0.000         0.000
  External Outflow .........         0.584         5.838
  Flooding Loss ............         3.024        30.245
  Evaporation Loss .........         0.000         0.000
  Exfiltration Loss ........         0.000         0.000
  Initial Stored Volume ....         0.000         0.000
  Final Stored Volume ......         0.807         8.070
  Continuity Error (%) .....         5.190
  
  
  *************************
  Highest Continuity Errors
  *************************
  Node T2 (21.61%)
  Node T3 (18.25%)
  Node T4 (17.75%)
  Node T6 (12.24%)
  Node J12 (8.76%)
  
  
  ***************************
  Time-Step Critical Elements
  ***************************
  Link C15 (34.22%)
  Link C21 (5.57%)
  
  
  ********************************
  Highest Flow Instability Indexes
  ********************************
  Link C13 (10)
  Link C3 (6)
  Link C11 (6)
  Link C23 (6)
  Link V3 (5)
  
  
  *********************************
  Most Frequent Nonconverging Nodes
  *********************************
  Node Out_to_WWTP (3.09%)
  Node CSO7 (1.63%)
  Node J4 (1.20%)
  Node CSO9 (1.03%)
  Node CSO8 (0.26%)
  
  
  *************************
  Routing Time Step Summary
  *************************
  Minimum Time Step           :     0.15 sec
  Average Time Step           :    24.44 sec
  Maximum Time Step           :    30.00 sec
  % of Time in Steady State   :     0.00
  Average Iterations per Step :     2.77
  % of Steps Not Converging   :     3.09
  Time Step Frequencies       :
     30.000 - 13.228 sec      :    77.32 %
     13.228 -  5.833 sec      :    22.16 %
      5.833 -  2.572 sec      :     0.17 %
      2.572 -  1.134 sec      :     0.34 %
      1.134 -  0.500 sec      :     0.00 %
  
  
  ***************************
  Subcatchment Runoff Summary
  ***************************
  
  ------------------------------------------------------------------------------------------------------------------------------
                            Total      Total      Total      Total     Imperv       Perv      Total       Total     Peak  Runoff
                           Precip      Runon       Evap      Infil     Runoff     Runoff     Runoff      Runoff   Runoff   Coeff
  Subcatchment                 mm         mm         mm         mm         mm         mm         mm    10^6 ltr      CMS
  ------------------------------------------------------------------------------------------------------------------------------
  SC01                      37.11       0.00       0.00       0.00      37.22       0.00      37.22       12.28     4.45   1.003
  SC02                      16.17       0.00       0.00       0.00      16.15       0.00      16.15        3.67     1.94   0.999
  SC03                      20.01       0.00       0.00       0.00      20.10       0.00      20.10        3.62     2.51   1.005
  SC04                      16.17       0.00       0.00       0.00      16.03       0.00      16.03        1.11     0.48   0.991
  SC05                      37.11       0.00       0.00       0.00      37.20       0.00      37.20        5.80     2.09   1.003
  SC06                      13.84       0.00       0.00       0.00      13.63       0.00      13.63        4.44     0.98   0.985
  SC07                      16.17       0.00       0.00       0.00      16.03       0.00      16.03        0.76     0.33   0.992
  SC08                      20.01       0.00       0.00       0.00      20.03       0.00      20.03        5.61     3.53   1.001
  SC09                      13.84       0.00       0.00       0.00      13.74       0.00      13.74        0.95     0.23   0.992
  SC010                     37.11       0.00       0.00       0.00      37.16       0.00      37.16        4.37     1.54   1.001
  
  
  ******************
  Node Depth Summary
  ******************
  
  ---------------------------------------------------------------------------------
                                 Average  Maximum  Maximum  Time of Max    Reported
                                   Depth    Depth      HGL   Occurrence   Max Depth
  Node                 Type       Meters   Meters   Meters  days hr:min      Meters
  ---------------------------------------------------------------------------------
  J1                   JUNCTION     0.16     0.63    34.63     0  02:00        0.63
  J3                   JUNCTION     0.11     0.14    18.14     0  02:45        0.14
  CSO7                 JUNCTION     0.35     1.20    35.20     0  02:02        1.20
  J5                   JUNCTION     0.09     0.25    32.25     0  02:20        0.25
  CSO9                 JUNCTION     0.63     2.00    42.00     0  01:40        2.00
  J8                   JUNCTION     0.16     0.35    36.35     0  02:11        0.34
  CSO8                 JUNCTION     0.55     2.00    34.00     0  01:47        2.00
  J10                  JUNCTION     0.14     0.52    29.52     0  02:02        0.52
  J13                  JUNCTION     0.10     0.36    29.36     0  02:20        0.36
  J15                  JUNCTION     0.30     1.08    16.08     0  02:01        1.05
  J16                  JUNCTION     0.15     0.50    30.50     0  02:00        0.50
  CSO10                JUNCTION     0.39     1.00    31.00     0  01:37        1.00
  J12                  JUNCTION     0.71     1.07    27.07     0  02:41        1.05
  J4                   JUNCTION     0.23     1.01    34.01     0  02:04        0.74
  J6                   JUNCTION     0.05     0.07    25.07     0  03:40        0.07
  J2                   JUNCTION     0.07     0.08    25.08     0  03:42        0.08
  J19                  JUNCTION     0.15     0.17     8.17     0  01:50        0.17
  J9                   JUNCTION     0.08     0.11    29.11     0  04:35        0.11
  J14                  JUNCTION     0.11     0.15    20.15     0  06:33        0.15
  J17                  JUNCTION     0.05     0.08    20.08     0  04:15        0.08
  J7                   JUNCTION     0.12     0.23    39.23     0  02:48        0.23
  J11                  JUNCTION     0.13     0.30    31.30     0  02:41        0.30
  J18                  JUNCTION     0.08     0.16    29.16     0  03:02        0.16
  Out_to_WWTP          OUTFALL      0.15     0.17     6.17     0  01:51        0.17
  T5                   STORAGE      3.91     5.00    32.00     0  01:50        5.00
  T4                   STORAGE      3.42     5.00    32.00     0  02:34        5.00
  T6                   STORAGE      3.91     5.00    36.00     0  02:06        5.00
  T3                   STORAGE      3.64     5.00    27.00     0  02:35        5.00
  T2                   STORAGE      3.55     5.00    26.00     0  02:22        5.00
  T1                   STORAGE      3.70     5.00    15.00     0  01:49        5.00
  
  
  *******************
  Node Inflow Summary
  *******************
  
  -------------------------------------------------------------------------------------------------
                                  Maximum  Maximum                  Lateral       Total        Flow
                                  Lateral    Total  Time of Max      Inflow      Inflow     Balance
                                   Inflow   Inflow   Occurrence      Volume      Volume       Error
  Node                 Type           CMS      CMS  days hr:min    10^6 ltr    10^6 ltr     Percent
  -------------------------------------------------------------------------------------------------
  J1                   JUNCTION     2.110    2.110     0  02:00        6.36        6.36      -0.017
  J3                   JUNCTION     0.000    0.192     0  03:28           0        3.47       0.921
  CSO7                 JUNCTION     0.341    0.341     0  02:20        1.06        1.06       0.053
  J5                   JUNCTION     0.484    0.560     0  02:20        1.24         1.9       0.093
  CSO9                 JUNCTION     0.239    0.239     0  02:10        1.14        1.14       0.060
  J8                   JUNCTION     1.018    1.145     0  02:10        5.38        6.29       0.076
  CSO8                 JUNCTION     3.543    3.543     0  02:05         5.9         5.9       0.003
  J10                  JUNCTION     2.528    3.014     0  02:00        4.01         6.7      -0.067
  J13                  JUNCTION     1.954    1.954     0  02:20        4.15        4.15      -0.135
  J15                  JUNCTION     0.000    4.757     0  02:00           0        18.3       0.411
  J16                  JUNCTION     4.467    4.467     0  02:00        12.8        12.8      -0.064
  CSO10                JUNCTION     1.546    1.546     0  02:00         4.5         4.5       0.029
  J12                  JUNCTION     0.000    3.065     0  02:05           0        8.04       9.599
  J4                   JUNCTION     0.000    0.085     0  02:02           0       0.664       0.504
  J6                   JUNCTION     0.000    0.028     0  02:34           0       0.474       0.853
  J2                   JUNCTION     0.000    0.039     0  01:50           0       0.897       0.554
  J19                  JUNCTION     0.000    0.271     0  01:50           0        5.85       0.185
  J9                   JUNCTION     0.000    0.075     0  02:55           0        1.21       0.817
  J14                  JUNCTION     0.000    0.124     0  02:35           0        2.11       0.220
  J17                  JUNCTION     0.000    0.033     0  02:25           0       0.521       0.981
  J7                   JUNCTION     0.000    0.127     0  02:48           0       0.913       0.356
  J11                  JUNCTION     0.000    0.486     0  02:41           0         2.7       0.261
  J18                  JUNCTION     0.000    0.202     0  02:15           0        1.51       0.056
  Out_to_WWTP          OUTFALL      0.000    0.271     0  01:51           0        5.84       0.000
  T5                   STORAGE      0.000    2.098     0  02:00           0        6.37       6.115
  T4                   STORAGE      0.000    0.555     0  02:20           0         1.9      21.579
  T6                   STORAGE      0.000    1.137     0  02:11           0        6.29      13.942
  T3                   STORAGE      0.000    3.045     0  02:05           0        7.34      22.324
  T2                   STORAGE      0.000    1.943     0  02:20           0        4.15      27.570
  T1                   STORAGE      0.000    4.422     0  02:01           0        18.2       2.857
  
  
  **********************
  Node Surcharge Summary
  **********************
  
  Surcharging occurs when water rises above the top of the highest conduit.
  ---------------------------------------------------------------------
                                               Max. Height   Min. Depth
                                   Hours       Above Crown    Below Rim
  Node                 Type      Surcharged         Meters       Meters
  ---------------------------------------------------------------------
  CSO7                 JUNCTION        1.12          0.945        0.000
  CSO9                 JUNCTION        1.38          1.682        0.000
  CSO8                 JUNCTION        1.08          1.547        0.000
  CSO10                JUNCTION        1.55          0.560        0.000
  J4                   JUNCTION        1.11          0.711        0.989
  
  
  *********************
  Node Flooding Summary
  *********************
  
  Flooding refers to all water that overflows a node, whether it ponds or not.
  --------------------------------------------------------------------------
                                                             Total   Maximum
                                 Maximum   Time of Max       Flood    Ponded
                        Hours       Rate    Occurrence      Volume     Depth
  Node                 Flooded       CMS   days hr:min    10^6 ltr    Meters
  --------------------------------------------------------------------------
  CSO7                    1.01     0.265      0  02:20       0.390     0.000
  CSO9                    1.13     0.112      0  02:10       0.231     0.000
  CSO8                    0.91     3.049      0  02:05       3.203     0.000
  CSO10                   1.50     1.341      0  02:00       2.996     0.000
  T5                      2.26     2.058      0  02:00       4.699     0.000
  T4                      2.36     0.321      0  02:34       0.612     0.000
  T6                      3.90     1.107      0  02:11       3.748     0.000
  T3                      1.27     1.176      0  02:45       1.190     0.000
  T2                      3.01     1.788      0  02:22       1.761     0.000
  T1                      2.27     4.150      0  02:01      11.399     0.000
  
  
  **********************
  Storage Volume Summary
  **********************
  
  ------------------------------------------------------------------------------------------------
                         Average    Avg   Evap  Exfil     Maximum    Max    Time of Max    Maximum
                          Volume   Pcnt   Pcnt   Pcnt      Volume   Pcnt     Occurrence    Outflow
  Storage Unit           1000 m³   Full   Loss   Loss     1000 m³   Full    days hr:min        CMS
  ------------------------------------------------------------------------------------------------
  T5                       0.391   78.3    0.0    0.0       0.500  100.0       0  01:50      0.039
  T4                       0.342   68.5    0.0    0.0       0.500  100.0       0  02:34      0.028
  T6                       0.469   78.1    0.0    0.0       0.600  100.0       0  02:06      0.075
  T3                       1.891   72.7    0.0    0.0       2.600  100.0       0  02:35      0.449
  T2                       0.709   70.9    0.0    0.0       1.000  100.0       0  02:22      0.033
  T1                       0.518   74.0    0.0    0.0       0.700  100.0       0  01:49      0.271
  
  
  ***********************
  Outfall Loading Summary
  ***********************
  
  -----------------------------------------------------------
                         Flow       Avg       Max       Total
                         Freq      Flow      Flow      Volume
  Outfall Node           Pcnt       CMS       CMS    10^6 ltr
  -----------------------------------------------------------
  Out_to_WWTP           99.06     0.216     0.271       5.838
  -----------------------------------------------------------
  System                99.06     0.216     0.271       5.838
  
  
  ********************
  Link Flow Summary
  ********************
  
  -----------------------------------------------------------------------------
                                 Maximum  Time of Max   Maximum    Max/    Max/
                                  |Flow|   Occurrence   |Veloc|    Full    Full
  Link                 Type          CMS  days hr:min     m/sec    Flow   Depth
  -----------------------------------------------------------------------------
  C1                   CONDUIT     0.039     0  02:39      1.34    0.01    0.11
  C6                   CONDUIT     0.076     0  02:20      1.29    1.20    0.92
  C2                   CONDUIT     0.028     0  03:40      1.00    0.03    0.18
  C9                   CONDUIT     0.127     0  02:48      1.28    0.43    0.58
  C16                  CONDUIT     0.487     0  02:30      1.80    0.05    0.20
  C3                   CONDUIT     0.125     0  05:03      1.90    0.05    0.14
  C19                  CONDUIT     0.033     0  04:15      0.70    0.01    0.52
  C11                  CONDUIT     0.191     0  02:45      1.79    0.01    0.30
  C20                  CONDUIT     4.447     0  02:00      5.62    0.14    0.39
  C22                  CONDUIT     0.202     0  02:15      1.63    0.09    0.60
  C12                  CONDUIT     0.075     0  04:35      0.62    0.01    0.29
  C17                  CONDUIT     3.009     0  02:03      4.50    0.15    0.33
  C10                  CONDUIT     1.137     0  02:11      1.66    0.12    0.62
  C13                  CONDUIT     3.045     0  02:05      1.80    0.18    0.77
  C18                  CONDUIT     1.943     0  02:20      3.36    0.07    0.59
  C23                  CONDUIT     4.422     0  02:01      2.74    0.49    0.86
  C4                   CONDUIT     2.098     0  02:00      3.06    0.51    0.82
  C7                   CONDUIT     0.555     0  02:20      1.44    0.14    0.62
  C14                  CONDUIT     0.271     0  01:51      2.08    0.02    0.09
  C5                   CONDUIT     0.085     0  02:02      1.67    1.45    1.00
  C8                   CONDUIT     0.127     0  02:48      1.79    1.60    0.86
  C15                  CONDUIT     0.486     0  02:41      3.51    1.55    0.83
  C21                  CONDUIT     0.202     0  02:15      1.85    1.16    0.69
  V4                   ORIFICE     0.028     0  02:34                      0.35
  V5                   ORIFICE     0.039     0  01:50                      1.00
  V1                   ORIFICE     0.271     0  01:50                      1.00
  V6                   ORIFICE     0.075     0  02:55                      0.43
  V3                   ORIFICE     0.124     0  02:35                      0.65
  V2                   ORIFICE     0.033     0  02:25                      0.24
  
  
  ***************************
  Flow Classification Summary
  ***************************
  
  -------------------------------------------------------------------------------------
                      Adjusted    ---------- Fraction of Time in Flow Class ---------- 
                       /Actual         Up    Down  Sub   Sup   Up    Down  Norm  Inlet 
  Conduit               Length    Dry  Dry   Dry   Crit  Crit  Crit  Crit  Ltd   Ctrl  
  -------------------------------------------------------------------------------------
  C1                      1.00   0.00  0.00  0.00  0.02  0.98  0.00  0.00  0.94  0.00
  C6                      1.00   0.00  0.00  0.00  0.16  0.84  0.00  0.00  0.00  0.00
  C2                      1.00   0.00  0.00  0.00  0.60  0.40  0.00  0.00  0.98  0.00
  C9                      1.00   0.00  0.00  0.00  1.00  0.00  0.00  0.00  1.00  0.00
  C16                     1.00   0.00  0.00  0.00  0.68  0.32  0.00  0.00  0.58  0.00
  C3                      1.00   0.00  0.01  0.00  0.05  0.94  0.00  0.00  0.46  0.00
  C19                     1.00   0.00  0.00  0.00  1.00  0.00  0.00  0.00  1.00  0.00
  C11                     1.00   0.00  0.00  0.00  0.34  0.66  0.00  0.00  1.00  0.00
  C20                     1.00   0.00  0.00  0.00  0.55  0.45  0.00  0.00  0.98  0.00
  C22                     1.00   0.00  0.00  0.00  0.91  0.09  0.00  0.00  1.00  0.00
  C12                     1.00   0.00  0.00  0.00  1.00  0.00  0.00  0.00  1.00  0.00
  C17                     1.00   0.00  0.00  0.00  0.70  0.30  0.00  0.00  0.91  0.00
  C10                     1.00   0.00  0.00  0.00  0.96  0.04  0.00  0.00  0.98  0.00
  C13                     1.00   0.00  0.00  0.00  0.85  0.15  0.00  0.00  0.19  0.00
  C18                     1.00   0.00  0.00  0.00  0.94  0.06  0.00  0.00  0.97  0.00
  C23                     1.00   0.00  0.00  0.00  0.86  0.14  0.00  0.00  0.85  0.00
  C4                      1.00   0.00  0.00  0.00  0.93  0.07  0.00  0.00  0.93  0.00
  C7                      1.00   0.00  0.00  0.00  0.95  0.05  0.00  0.00  0.97  0.00
  C14                     1.00   0.00  0.01  0.00  0.01  0.98  0.00  0.00  0.23  0.00
  C5                      1.00   0.00  0.00  0.00  0.93  0.07  0.00  0.00  0.84  0.00
  C8                      1.00   0.00  0.00  0.00  0.18  0.82  0.00  0.00  0.00  0.00
  C15                     1.00   0.00  0.00  0.00  0.00  1.00  0.00  0.00  0.00  0.00
  C21                     1.00   0.00  0.00  0.00  0.00  1.00  0.00  0.00  0.00  0.00
  
  
  *************************
  Conduit Surcharge Summary
  *************************
  
  ----------------------------------------------------------------------------
                                                           Hours        Hours 
                         --------- Hours Full --------   Above Full   Capacity
  Conduit                Both Ends  Upstream  Dnstream   Normal Flow   Limited
  ----------------------------------------------------------------------------
  C6                          0.01      1.10      0.01      1.01         0.01
  C19                         0.01      0.01      0.11      0.01         0.01
  C22                         0.01      0.01      0.25      0.01         0.01
  C10                         0.01      0.01      6.13      0.01         0.01
  C13                         0.01      0.01      5.87      0.01         0.01
  C18                         0.01      0.01      5.74      0.01         0.01
  C23                         0.01      0.01      6.19      0.01         0.01
  C4                          0.01      0.01      6.25      0.01         0.01
  C7                          0.01      0.01      5.79      0.01         0.01
  C5                          1.10      1.12      1.20      1.12         1.08
  C8                          0.01      1.37      0.01      1.39         0.01
  C15                         0.01      1.08      0.01      1.11         0.01
  C21                         0.01      1.55      0.01      1.54         0.01
  

  Analysis begun on:  Sun Oct 20 16:58:20 2024
  Analysis ended on:  Sun Oct 20 16:58:20 2024
  Total elapsed time: < 1 sec