
  EPA STORM WATER MANAGEMENT MODEL - VERSION 5.2 (Build 5.2.4)
  PYSWMM TOOLKIT API - VERSION v1.0 (2023-11-27)
  ------------------------------------------------------------

  
  ****************
  Analysis Options
  ****************
  Flow Units ............... CMS
  Process Models:
    Rainfall/Runoff ........ YES
    RDII ................... NO
    Snowmelt ............... NO
    Groundwater ............ NO
    Flow Routing ........... YES
    Ponding Allowed ........ YES
    Water Quality .......... NO
  Infiltration Method ...... HORTON
  Flow Routing Method ...... DYNWAVE
  Surcharge Method ......... EXTRAN
  Starting Date ............ 01/01/2000 08:00:00
  Ending Date .............. 01/01/2000 16:00:00
  Antecedent Dry Days ...... 0.0
  Report Time Step ......... 00:05:00
  Wet Time Step ............ 00:05:00
  Dry Time Step ............ 00:05:00
  Routing Time Step ........ 30.00 sec
  Variable Time Step ....... YES
  Maximum Trials ........... 8
  Number of Threads ........ 1
  Head Tolerance ........... 0.001500 m
  
  
  **************************        Volume         Depth
  Runoff Quantity Continuity     hectare-m            mm
  **************************     ---------       -------
  Total Precipitation ......         3.120        17.317
  Evaporation Loss .........         0.000         0.000
  Infiltration Loss ........         0.000         0.000
  Surface Runoff ...........         3.166        17.569
  Final Storage ............         0.020         0.111
  Continuity Error (%) .....        -2.094
  
  
  **************************        Volume        Volume
  Flow Routing Continuity        hectare-m      10^6 ltr
  **************************     ---------     ---------
  Dry Weather Inflow .......         0.399         3.989
  Wet Weather Inflow .......         3.166        31.662
  Groundwater Inflow .......         0.000         0.000
  RDII Inflow ..............         0.000         0.000
  External Inflow ..........         0.000         0.000
  External Outflow .........         0.606         6.056
  Flooding Loss ............         1.935        19.352
  Evaporation Loss .........         0.000         0.000
  Exfiltration Loss ........         0.000         0.000
  Initial Stored Volume ....         0.000         0.000
  Final Stored Volume ......         0.796         7.961
  Continuity Error (%) .....         6.399
  
  
  *************************
  Highest Continuity Errors
  *************************
  Node T2 (29.75%)
  Node T4 (23.01%)
  Node T3 (19.49%)
  Node T5 (11.99%)
  Node J12 (8.82%)
  
  
  ***************************
  Time-Step Critical Elements
  ***************************
  Link C15 (31.49%)
  
  
  ********************************
  Highest Flow Instability Indexes
  ********************************
  Link C13 (12)
  Link C11 (7)
  Link C12 (6)
  Link C3 (6)
  Link C23 (6)
  
  
  *********************************
  Most Frequent Nonconverging Nodes
  *********************************
  Node Out_to_WWTP (2.71%)
  Node J4 (1.72%)
  Node CSO7 (1.63%)
  Node CSO9 (0.90%)
  Node J8 (0.63%)
  
  
  *************************
  Routing Time Step Summary
  *************************
  Minimum Time Step           :     0.20 sec
  Average Time Step           :    25.79 sec
  Maximum Time Step           :    30.00 sec
  % of Time in Steady State   :     0.00
  Average Iterations per Step :     2.58
  % of Steps Not Converging   :     2.71
  Time Step Frequencies       :
     30.000 - 13.228 sec      :    83.95 %
     13.228 -  5.833 sec      :    15.59 %
      5.833 -  2.572 sec      :     0.27 %
      2.572 -  1.134 sec      :     0.09 %
      1.134 -  0.500 sec      :     0.09 %
  
  
  ***************************
  Subcatchment Runoff Summary
  ***************************
  
  ------------------------------------------------------------------------------------------------------------------------------
                            Total      Total      Total      Total     Imperv       Perv      Total       Total     Peak  Runoff
                           Precip      Runon       Evap      Infil     Runoff     Runoff     Runoff      Runoff   Runoff   Coeff
  Subcatchment                 mm         mm         mm         mm         mm         mm         mm    10^6 ltr      CMS
  ------------------------------------------------------------------------------------------------------------------------------
  SC01                      13.24       0.00       0.00       0.00      13.48       0.00      13.48        4.45     4.62   1.018
  SC02                      11.06       0.00       0.00       0.00      11.21       0.00      11.21        2.55     2.53   1.014
  SC03                      19.58       0.00       0.00       0.00      20.23       0.00      20.23        3.64     4.55   1.033
  SC04                      11.06       0.00       0.00       0.00      11.04       0.00      11.04        0.76     0.51   0.998
  SC05                      13.24       0.00       0.00       0.00      13.46       0.00      13.46        2.10     2.12   1.017
  SC06                      26.37       0.00       0.00       0.00      26.49       0.00      26.49        8.62     5.99   1.004
  SC07                      11.06       0.00       0.00       0.00      11.04       0.00      11.04        0.52     0.35   0.998
  SC08                      19.58       0.00       0.00       0.00      19.97       0.00      19.97        5.59     5.51   1.020
  SC09                      26.37       0.00       0.00       0.00      26.68       0.00      26.68        1.84     1.56   1.012
  SC010                     13.24       0.00       0.00       0.00      13.41       0.00      13.41        1.58     1.46   1.013
  
  
  ******************
  Node Depth Summary
  ******************
  
  ---------------------------------------------------------------------------------
                                 Average  Maximum  Maximum  Time of Max    Reported
                                   Depth    Depth      HGL   Occurrence   Max Depth
  Node                 Type       Meters   Meters   Meters  days hr:min      Meters
  ---------------------------------------------------------------------------------
  J1                   JUNCTION     0.10     0.57    34.57     0  01:20        0.54
  J3                   JUNCTION     0.11     0.14    18.14     0  03:05        0.14
  CSO7                 JUNCTION     0.27     1.20    35.20     0  01:06        1.20
  J5                   JUNCTION     0.08     0.26    32.26     0  01:15        0.25
  CSO9                 JUNCTION     0.43     2.00    42.00     0  01:06        2.00
  J8                   JUNCTION     0.21     2.71    38.71     0  01:18        2.04
  CSO8                 JUNCTION     0.41     2.00    34.00     0  01:01        2.00
  J10                  JUNCTION     0.13     0.67    29.67     0  01:10        0.66
  J13                  JUNCTION     0.08     0.41    29.41     0  01:15        0.41
  J15                  JUNCTION     0.20     0.85    15.85     0  01:23        0.83
  J16                  JUNCTION     0.09     0.51    30.51     0  01:20        0.51
  CSO10                JUNCTION     0.21     1.00    31.00     0  01:11        1.00
  J12                  JUNCTION     0.78     1.03    27.03     0  01:50        1.03
  J4                   JUNCTION     0.19     0.76    33.76     0  01:44        0.74
  J6                   JUNCTION     0.06     0.07    25.07     0  02:25        0.07
  J2                   JUNCTION     0.07     0.08    25.08     0  02:30        0.08
  J19                  JUNCTION     0.14     0.17     8.17     0  01:22        0.17
  J9                   JUNCTION     0.08     0.11    29.11     0  04:15        0.11
  J14                  JUNCTION     0.12     0.15    20.15     0  04:13        0.15
  J17                  JUNCTION     0.06     0.08    20.08     0  02:05        0.08
  J7                   JUNCTION     0.10     0.23    39.23     0  01:45        0.23
  J11                  JUNCTION     0.11     0.30    31.30     0  01:37        0.30
  J18                  JUNCTION     0.06     0.16    29.16     0  01:40        0.16
  Out_to_WWTP          OUTFALL      0.14     0.17     6.17     0  02:53        0.17
  T5                   STORAGE      3.83     5.00    32.00     0  01:21        5.00
  T4                   STORAGE      3.87     5.00    32.00     0  02:03        5.00
  T6                   STORAGE      4.20     5.00    36.00     0  01:15        5.00
  T3                   STORAGE      4.09     5.00    27.00     0  01:52        5.00
  T2                   STORAGE      4.11     5.00    26.00     0  01:27        5.00
  T1                   STORAGE      3.60     5.00    15.00     0  01:21        5.00
  
  
  *******************
  Node Inflow Summary
  *******************
  
  -------------------------------------------------------------------------------------------------
                                  Maximum  Maximum                  Lateral       Total        Flow
                                  Lateral    Total  Time of Max      Inflow      Inflow     Balance
                                   Inflow   Inflow   Occurrence      Volume      Volume       Error
  Node                 Type           CMS      CMS  days hr:min    10^6 ltr    10^6 ltr     Percent
  -------------------------------------------------------------------------------------------------
  J1                   JUNCTION     2.141    2.141     0  01:20        2.67        2.67      -0.020
  J3                   JUNCTION     0.000    0.192     0  02:18           0        3.81       0.777
  CSO7                 JUNCTION     0.361    0.361     0  01:15       0.818       0.818       0.059
  J5                   JUNCTION     0.514    0.590     0  01:15       0.891        1.47       0.038
  CSO9                 JUNCTION     1.567    1.567     0  01:15        2.04        2.04       0.022
  J8                   JUNCTION     6.024    6.151     0  01:20        9.58        10.3      -0.035
  CSO8                 JUNCTION     5.523    5.523     0  01:10        5.88        5.88      -0.067
  J10                  JUNCTION     4.561    5.037     0  01:10        4.02        6.09      -0.158
  J13                  JUNCTION     2.549    2.549     0  01:15        3.02        3.02      -0.472
  J15                  JUNCTION     0.000    4.882     0  01:20           0        10.2       0.829
  J16                  JUNCTION     4.634    4.634     0  01:20        5.01        5.01      -0.179
  CSO10                JUNCTION     1.469    1.469     0  01:20        1.72        1.72      -0.016
  J12                  JUNCTION     0.000    4.917     0  01:10           0        7.59       9.672
  J4                   JUNCTION     0.000    0.085     0  01:09           0       0.578       0.544
  J6                   JUNCTION     0.000    0.028     0  02:05           0       0.518       0.526
  J2                   JUNCTION     0.000    0.039     0  01:21           0       0.926       0.539
  J19                  JUNCTION     0.000    0.271     0  01:21           0        6.07       0.175
  J9                   JUNCTION     0.000    0.075     0  01:15           0        1.32       1.732
  J14                  JUNCTION     0.000    0.124     0  01:52           0        2.37       0.203
  J17                  JUNCTION     0.000    0.033     0  01:28           0       0.584       1.255
  J7                   JUNCTION     0.000    0.127     0  01:45           0       0.695       0.435
  J11                  JUNCTION     0.000    0.487     0  01:37           0        2.07       0.482
  J18                  JUNCTION     0.000    0.202     0  01:40           0       0.797       0.070
  Out_to_WWTP          OUTFALL      0.000    0.271     0  01:23           0        6.06       0.000
  T5                   STORAGE      0.000    2.029     0  01:20           0        2.67      13.621
  T4                   STORAGE      0.000    0.579     0  01:15           0        1.47      29.882
  T6                   STORAGE      0.000    6.150     0  01:20           0        10.3       7.323
  T3                   STORAGE      0.000    4.659     0  01:11           0        6.92      24.213
  T2                   STORAGE      0.000    2.519     0  01:15           0        3.04      42.357
  T1                   STORAGE      0.000    4.104     0  01:19           0        10.1       5.178
  
  
  **********************
  Node Surcharge Summary
  **********************
  
  Surcharging occurs when water rises above the top of the highest conduit.
  ---------------------------------------------------------------------
                                               Max. Height   Min. Depth
                                   Hours       Above Crown    Below Rim
  Node                 Type      Surcharged         Meters       Meters
  ---------------------------------------------------------------------
  CSO7                 JUNCTION        0.75          0.945        0.000
  CSO9                 JUNCTION        0.82          1.682        0.000
  J8                   JUNCTION        0.06          1.211        0.289
  CSO8                 JUNCTION        0.75          1.547        0.000
  CSO10                JUNCTION        0.54          0.560        0.000
  J4                   JUNCTION        0.70          0.455        1.245
  
  
  *********************
  Node Flooding Summary
  *********************
  
  Flooding refers to all water that overflows a node, whether it ponds or not.
  --------------------------------------------------------------------------
                                                             Total   Maximum
                                 Maximum   Time of Max       Flood    Ponded
                        Hours       Rate    Occurrence      Volume     Depth
  Node                 Flooded       CMS   days hr:min    10^6 ltr    Meters
  --------------------------------------------------------------------------
  CSO7                    0.64     0.283      0  01:15       0.239     0.000
  CSO9                    0.66     1.438      0  01:15       1.344     0.000
  CSO8                    0.61     5.001      0  01:10       3.812     0.000
  CSO10                   0.48     1.259      0  01:20       0.920     0.000
  T5                      1.34     1.884      0  01:21       1.050     0.000
  T4                      1.87     0.087      0  02:03       0.146     0.000
  T6                      3.69     6.067      0  01:20       7.693     0.000
  T3                      0.75     0.831      0  01:52       0.464     0.000
  T2                      2.28     0.585      0  01:27       0.599     0.000
  T1                      1.38     3.370      0  01:21       3.077     0.000
  
  
  **********************
  Storage Volume Summary
  **********************
  
  ------------------------------------------------------------------------------------------------
                         Average    Avg   Evap  Exfil     Maximum    Max    Time of Max    Maximum
                          Volume   Pcnt   Pcnt   Pcnt      Volume   Pcnt     Occurrence    Outflow
  Storage Unit           1000 m³   Full   Loss   Loss     1000 m³   Full    days hr:min        CMS
  ------------------------------------------------------------------------------------------------
  T5                       0.383   76.7    0.0    0.0       0.500  100.0       0  01:21      0.039
  T4                       0.387   77.4    0.0    0.0       0.500  100.0       0  02:03      0.028
  T6                       0.503   83.9    0.0    0.0       0.600  100.0       0  01:15      0.075
  T3                       2.128   81.9    0.0    0.0       2.600  100.0       0  01:52      0.552
  T2                       0.822   82.2    0.0    0.0       1.000  100.0       0  01:27      0.033
  T1                       0.504   72.0    0.0    0.0       0.700  100.0       0  01:21      0.271
  
  
  ***********************
  Outfall Loading Summary
  ***********************
  
  -----------------------------------------------------------
                         Flow       Avg       Max       Total
                         Freq      Flow      Flow      Volume
  Outfall Node           Pcnt       CMS       CMS    10^6 ltr
  -----------------------------------------------------------
  Out_to_WWTP           99.00     0.213     0.271       6.056
  -----------------------------------------------------------
  System                99.00     0.213     0.271       6.056
  
  
  ********************
  Link Flow Summary
  ********************
  
  -----------------------------------------------------------------------------
                                 Maximum  Time of Max   Maximum    Max/    Max/
                                  |Flow|   Occurrence   |Veloc|    Full    Full
  Link                 Type          CMS  days hr:min     m/sec    Flow   Depth
  -----------------------------------------------------------------------------
  C1                   CONDUIT     0.039     0  02:10      1.11    0.01    0.11
  C6                   CONDUIT     0.076     0  01:15      1.29    1.20    0.93
  C2                   CONDUIT     0.028     0  02:25      1.00    0.03    0.18
  C9                   CONDUIT     0.127     0  01:45      1.13    0.43    0.73
  C16                  CONDUIT     0.486     0  01:28      1.86    0.05    0.24
  C3                   CONDUIT     0.125     0  04:13      1.90    0.05    0.14
  C19                  CONDUIT     0.033     0  02:05      0.72    0.01    0.46
  C11                  CONDUIT     0.190     0  03:05      1.78    0.01    0.24
  C20                  CONDUIT     4.587     0  01:20      6.03    0.14    0.32
  C22                  CONDUIT     0.202     0  01:40      1.59    0.09    0.60
  C12                  CONDUIT     0.075     0  04:15      0.60    0.01    0.28
  C17                  CONDUIT     4.897     0  01:10      5.13    0.24    0.34
  C10                  CONDUIT     6.150     0  01:20      3.48    0.63    1.00
  C13                  CONDUIT     4.659     0  01:11      4.10    0.27    0.76
  C18                  CONDUIT     2.519     0  01:15      3.36    0.09    0.60
  C23                  CONDUIT     4.104     0  01:19      2.97    0.45    0.78
  C4                   CONDUIT     2.029     0  01:20      3.09    0.49    0.78
  C7                   CONDUIT     0.579     0  01:15      1.44    0.14    0.63
  C14                  CONDUIT     0.271     0  01:23      2.08    0.02    0.09
  C5                   CONDUIT     0.085     0  01:09      1.75    1.46    1.00
  C8                   CONDUIT     0.127     0  01:45      1.97    1.60    0.86
  C15                  CONDUIT     0.487     0  01:37      4.02    1.55    0.83
  C21                  CONDUIT     0.202     0  01:40      1.92    1.16    0.69
  V4                   ORIFICE     0.028     0  02:05                      0.35
  V5                   ORIFICE     0.039     0  01:21                      1.00
  V1                   ORIFICE     0.271     0  01:21                      1.00
  V6                   ORIFICE     0.075     0  01:15                      0.43
  V3                   ORIFICE     0.124     0  01:52                      0.65
  V2                   ORIFICE     0.033     0  01:28                      0.24
  
  
  ***************************
  Flow Classification Summary
  ***************************
  
  -------------------------------------------------------------------------------------
                      Adjusted    ---------- Fraction of Time in Flow Class ---------- 
                       /Actual         Up    Down  Sub   Sup   Up    Down  Norm  Inlet 
  Conduit               Length    Dry  Dry   Dry   Crit  Crit  Crit  Crit  Ltd   Ctrl  
  -------------------------------------------------------------------------------------
  C1                      1.00   0.00  0.00  0.00  0.11  0.89  0.00  0.00  0.94  0.00
  C6                      1.00   0.00  0.00  0.00  0.12  0.88  0.00  0.00  0.00  0.00
  C2                      1.00   0.00  0.00  0.00  0.61  0.38  0.00  0.00  0.99  0.00
  C9                      1.00   0.00  0.00  0.00  1.00  0.00  0.00  0.00  1.00  0.00
  C16                     1.00   0.00  0.00  0.00  0.70  0.30  0.00  0.00  0.64  0.00
  C3                      1.00   0.00  0.01  0.00  0.05  0.94  0.00  0.00  0.40  0.00
  C19                     1.00   0.00  0.00  0.00  1.00  0.00  0.00  0.00  1.00  0.00
  C11                     1.00   0.00  0.00  0.00  0.18  0.82  0.00  0.00  1.00  0.00
  C20                     1.00   0.00  0.00  0.00  0.69  0.31  0.00  0.00  0.97  0.00
  C22                     1.00   0.00  0.00  0.00  0.92  0.08  0.00  0.00  1.00  0.00
  C12                     1.00   0.00  0.00  0.00  1.00  0.00  0.00  0.00  1.00  0.00
  C17                     1.00   0.00  0.00  0.00  0.81  0.19  0.00  0.00  0.95  0.00
  C10                     1.00   0.00  0.00  0.00  0.96  0.04  0.00  0.00  0.94  0.00
  C13                     1.00   0.00  0.00  0.00  0.85  0.15  0.00  0.00  0.07  0.00
  C18                     1.00   0.00  0.00  0.00  0.93  0.07  0.00  0.00  0.97  0.00
  C23                     1.00   0.00  0.00  0.00  0.85  0.15  0.00  0.00  0.92  0.00
  C4                      1.00   0.00  0.00  0.00  0.94  0.06  0.00  0.00  0.97  0.00
  C7                      1.00   0.00  0.00  0.00  0.94  0.06  0.00  0.00  0.97  0.00
  C14                     1.00   0.00  0.01  0.00  0.01  0.98  0.00  0.00  0.32  0.00
  C5                      1.00   0.00  0.00  0.00  0.95  0.05  0.00  0.00  0.87  0.00
  C8                      1.00   0.00  0.00  0.00  0.11  0.89  0.00  0.00  0.00  0.00
  C15                     1.00   0.00  0.00  0.00  0.00  1.00  0.00  0.00  0.00  0.00
  C21                     1.00   0.00  0.00  0.00  0.00  1.00  0.00  0.00  0.00  0.00
  
  
  *************************
  Conduit Surcharge Summary
  *************************
  
  ----------------------------------------------------------------------------
                                                           Hours        Hours 
                         --------- Hours Full --------   Above Full   Capacity
  Conduit                Both Ends  Upstream  Dnstream   Normal Flow   Limited
  ----------------------------------------------------------------------------
  C6                          0.01      0.70      0.01      0.63         0.01
  C9                          0.01      0.01      0.36      0.01         0.01
  C22                         0.01      0.01      0.07      0.01         0.01
  C10                         0.06      0.06      6.73      0.01         0.01
  C13                         0.01      0.01      6.70      0.01         0.01
  C18                         0.01      0.01      6.68      0.01         0.01
  C23                         0.01      0.01      6.64      0.01         0.01
  C4                          0.01      0.01      6.68      0.01         0.01
  C7                          0.01      0.01      6.67      0.01         0.01
  C5                          0.69      0.75      0.80      0.75         0.67
  C8                          0.01      0.82      0.01      0.84         0.01
  C15                         0.01      0.75      0.01      0.77         0.01
  C21                         0.01      0.54      0.01      0.52         0.01
  

  Analysis begun on:  Sun Oct 20 16:54:13 2024
  Analysis ended on:  Sun Oct 20 16:54:13 2024
  Total elapsed time: < 1 sec