
  EPA STORM WATER MANAGEMENT MODEL - VERSION 5.2 (Build 5.2.4)
  PYSWMM TOOLKIT API - VERSION v1.0 (2023-11-27)
  ------------------------------------------------------------

  WARNING 04: minimum elevation drop used for Conduit WS02004404WS02004405
  WARNING 03: negative offset ignored for Link YS02001904YS02001907
  
  ****************
  Analysis Options
  ****************
  Flow Units ............... LPS
  Process Models:
    Rainfall/Runoff ........ YES
    RDII ................... NO
    Snowmelt ............... NO
    Groundwater ............ NO
    Flow Routing ........... YES
    Ponding Allowed ........ NO
    Water Quality .......... NO
  Infiltration Method ...... HORTON
  Flow Routing Method ...... DYNWAVE
  Surcharge Method ......... EXTRAN
  Starting Date ............ 08/28/2015 08:00:00
  Ending Date .............. 08/28/2015 16:00:00
  Antecedent Dry Days ...... 8.0
  Report Time Step ......... 00:01:00
  Wet Time Step ............ 00:01:00
  Dry Time Step ............ 00:01:00
  Routing Time Step ........ 30.00 sec
  Variable Time Step ....... YES
  Maximum Trials ........... 8
  Number of Threads ........ 1
  Head Tolerance ........... 0.001500 m
  
  
  **************************        Volume         Depth
  Runoff Quantity Continuity     hectare-m            mm
  **************************     ---------       -------
  Total Precipitation ......        21.402       645.226
  Evaporation Loss .........         0.000         0.000
  Infiltration Loss ........         0.112         3.370
  Surface Runoff ...........        21.267       641.157
  Final Storage ............         0.033         1.003
  Continuity Error (%) .....        -0.047
  
  
  **************************        Volume        Volume
  Flow Routing Continuity        hectare-m      10^6 ltr
  **************************     ---------     ---------
  Dry Weather Inflow .......         0.025         0.248
  Wet Weather Inflow .......        21.267       212.672
  Groundwater Inflow .......         0.000         0.000
  RDII Inflow ..............         0.000         0.000
  External Inflow ..........         0.083         0.825
  External Outflow .........         2.852        28.523
  Flooding Loss ............        18.587       185.876
  Evaporation Loss .........         0.000         0.000
  Exfiltration Loss ........         0.000         0.000
  Initial Stored Volume ....         0.243         2.431
  Final Stored Volume ......         0.192         1.925
  Continuity Error (%) .....        -0.068
  
  
  *************************
  Highest Continuity Errors
  *************************
  Node YS02001583 (-11.88%)
  Node YS02001884 (5.39%)
  Node WS02006256 (-3.00%)
  
  
  ***************************
  Time-Step Critical Elements
  ***************************
  Link WS02006252WS02006251 (26.61%)
  Link YS02001791YS02001793 (20.60%)
  Link YS02001793JiankangQianchi (15.57%)
  Link WS02006238WS02006235 (11.06%)
  Link WS02003066WSF200 (7.59%)
  
  
  ********************************
  Highest Flow Instability Indexes
  ********************************
  Link WS02006113WS02006111 (44)
  Link YS02001602YS02001605 (42)
  Link YS02001605YS02001607 (39)
  Link YS02001619YS02001622 (38)
  Link YS02001607YS02001610 (37)
  
  
  *********************************
  Most Frequent Nonconverging Nodes
  *********************************
  Node CC-1 (32.01%)
  Node CC-2 (32.01%)
  Node JK-1 (32.01%)
  Node JK-2 (32.01%)
  Node WSC (32.01%)
  
  
  *************************
  Routing Time Step Summary
  *************************
  Minimum Time Step           :     0.01 sec
  Average Time Step           :     2.31 sec
  Maximum Time Step           :     6.13 sec
  % of Time in Steady State   :     0.00
  Average Iterations per Step :     4.27
  % of Steps Not Converging   :    32.01
  Time Step Frequencies       :
     30.000 - 13.228 sec      :     0.00 %
     13.228 -  5.833 sec      :     6.60 %
      5.833 -  2.572 sec      :    25.26 %
      2.572 -  1.134 sec      :    29.41 %
      1.134 -  0.500 sec      :    38.73 %
  
  
  ***************************
  Subcatchment Runoff Summary
  ***************************
  
  ------------------------------------------------------------------------------------------------------------------------------
                            Total      Total      Total      Total     Imperv       Perv      Total       Total     Peak  Runoff
                           Precip      Runon       Evap      Infil     Runoff     Runoff     Runoff      Runoff   Runoff   Coeff
  Subcatchment                 mm         mm         mm         mm         mm         mm         mm    10^6 ltr      LPS
  ------------------------------------------------------------------------------------------------------------------------------
  sub60                    645.23       0.00       0.00       1.97     566.88      75.49     642.37        8.44  7414.76   0.996
  sub61                    645.23       0.00       0.00       2.88     534.68     106.87     641.54       11.77 10328.15   0.994
  sub62                    645.23       0.00       0.00       1.31     592.60      50.33     642.94       17.62 14692.48   0.996
  sub63                    645.23       0.00       0.00       5.37     457.37     181.83     639.20       14.51 11998.81   0.991
  sub64                    645.23       0.00       0.00       2.71     547.49      94.12     641.61       15.41 12439.13   0.994
  sub65                    645.23       0.00       0.00       2.34     560.34      81.57     641.92       17.67 14080.42   0.995
  sub66                    645.23       0.00       0.00       6.72     457.21     180.45     637.66       29.73 20240.00   0.988
  sub67                    645.23       0.00       0.00       1.25     592.67      50.40     643.07       11.96 10889.27   0.997
  sub68                    645.23       0.00       0.00       2.39     553.98      87.99     641.97       17.67 15048.86   0.995
  sub69                    645.23       0.00       0.00       2.21     548.57      94.62     643.19       23.81 18780.91   0.997
  sub70                    645.23       0.00       0.00       7.46     425.84     211.97     637.81       18.43 11590.69   0.989
  sub71                    645.23       0.00       0.00       1.36     592.54      50.29     642.83       16.81 13473.53   0.996
  sub72                    645.23       0.00       0.00       1.21     598.90      43.98     642.87        8.84  6758.81   0.996
  
  
  ******************
  Node Depth Summary
  ******************
  
  ---------------------------------------------------------------------------------
                                 Average  Maximum  Maximum  Time of Max    Reported
                                   Depth    Depth      HGL   Occurrence   Max Depth
  Node                 Type       Meters   Meters   Meters  days hr:min      Meters
  ---------------------------------------------------------------------------------
  WS02003060           JUNCTION     0.23     0.38     5.31     0  01:55        0.38
  WS02003066           JUNCTION     0.19     0.30     5.85     0  01:56        0.30
  WS02003067           JUNCTION     0.47     0.70     6.02     0  01:55        0.70
  WS02003069           JUNCTION     0.26     0.43     5.01     0  01:56        0.43
  WS02003072           JUNCTION     0.32     0.50     4.87     0  01:57        0.50
  WS02003073           JUNCTION     0.18     0.30     4.36     0  01:58        0.30
  WS02004401           JUNCTION     0.56     0.85     6.85     0  01:53        0.85
  WS02004402           JUNCTION     0.58     0.87     6.83     0  01:52        0.87
  WS02004403           JUNCTION     0.60     0.89     6.82     0  01:54        0.89
  WS02004404           JUNCTION     0.67     0.96     6.81     0  01:53        0.96
  WS02004405           JUNCTION     0.67     0.95     6.80     0  01:53        0.95
  WS02004406           JUNCTION     0.68     0.95     6.78     0  01:52        0.95
  WS02004407           JUNCTION     0.17     0.29     6.61     0  01:54        0.29
  WS02004409           JUNCTION     0.38     0.66     6.43     0  01:55        0.66
  WS02004410           JUNCTION     0.40     0.68     6.40     0  01:54        0.68
  WS02004411           JUNCTION     0.42     0.69     6.37     0  01:55        0.69
  WS02004412           JUNCTION     0.44     0.70     6.34     0  01:55        0.70
  WS02004413           JUNCTION     0.58     0.86     6.33     0  01:55        0.86
  WS02006109           JUNCTION     0.64     1.38     8.00     0  02:07        1.35
  WS02006110           JUNCTION     0.63     1.51     8.10     0  02:07        1.50
  WS02006111           JUNCTION     0.17     0.29     6.99     0  01:46        0.29
  WS02006112           JUNCTION     0.71     1.12     7.00     0  01:55        1.04
  WS02006113           JUNCTION     0.26     0.46     7.35     0  01:32        0.45
  WS02006115           JUNCTION     0.46     0.75     6.89     0  01:53        0.75
  WS02006116           JUNCTION     0.53     0.83     6.87     0  01:53        0.83
  WS02006228           JUNCTION     0.63     1.39     8.04     0  02:56        1.39
  WS02006229           JUNCTION     0.61     1.32     8.02     0  02:07        1.31
  WS02006230           JUNCTION     0.63     1.60     8.34     0  02:07        1.30
  WS02006231           JUNCTION     0.42     2.01     9.14     0  02:31        1.78
  WS02006232           JUNCTION     0.55     1.91     8.95     0  02:07        1.91
  WS02006234           JUNCTION     0.49     1.96     9.12     0  02:07        1.96
  WS02006235           JUNCTION     0.53     2.00     9.16     0  02:07        2.00
  WS02006238           JUNCTION     0.56     2.12     9.27     0  02:07        2.12
  WS02006239           JUNCTION     0.54     2.03     9.24     0  02:26        1.93
  WS02006240           JUNCTION     0.52     1.86     9.15     0  02:26        1.73
  WS02006242           JUNCTION     0.60     1.55     8.82     0  01:59        1.55
  WS02006243           JUNCTION     0.53     1.48     8.90     0  02:31        1.47
  WS02006245           JUNCTION     0.54     1.45     8.93     0  02:31        1.38
  WS02006247           JUNCTION     0.57     1.36     8.86     0  02:31        1.30
  WS02006248           JUNCTION     0.54     1.10     8.69     0  01:29        1.10
  WS02006249           JUNCTION     0.57     1.09     8.69     0  01:29        1.09
  WS02006251           JUNCTION     0.57     1.57     9.24     0  02:35        1.57
  WS02006252           JUNCTION     0.40     1.50     9.74     0  01:19        1.16
  WS02006256           JUNCTION     0.90     2.35     9.28     0  00:06        2.35
  WSF200               JUNCTION     0.16     0.29     5.52     0  01:56        0.29
  YS02001580           JUNCTION     0.29     1.05     9.59     0  01:12        0.77
  YS02001583           JUNCTION     0.32     1.14     9.64     0  01:12        0.82
  YS02001586           JUNCTION     0.46     1.13     9.30     0  01:12        1.13
  YS02001590           JUNCTION     0.59     1.40     9.26     0  01:12        1.39
  YS02001593           JUNCTION     0.52     1.36     9.22     0  01:12        1.31
  YS02001596           JUNCTION     0.67     1.72     9.14     0  01:31        1.72
  YS02001600           JUNCTION     0.77     1.87     9.00     0  01:12        1.87
  YS02001601           JUNCTION     0.94     2.06     8.90     0  01:11        2.06
  YS02001602           JUNCTION     0.84     1.87     8.77     0  01:13        1.87
  YS02001605           JUNCTION     0.79     1.78     8.68     0  01:13        1.78
  YS02001607           JUNCTION     0.75     1.68     8.53     0  01:13        1.68
  YS02001610           JUNCTION     0.79     1.68     8.48     0  01:13        1.68
  YS02001613           JUNCTION     0.76     1.70     8.54     0  01:13        1.70
  YS02001616           JUNCTION     0.70     1.61     8.52     0  01:13        1.61
  YS02001619           JUNCTION     0.69     1.61     8.54     0  01:13        1.61
  YS02001622           JUNCTION     0.68     1.61     8.51     0  01:31        1.59
  YS02001625           JUNCTION     0.90     1.78     8.38     0  01:13        1.78
  YS02001629           JUNCTION     0.84     1.85     8.40     0  01:13        1.85
  YS02001633           JUNCTION     0.94     2.08     8.53     0  01:16        2.08
  YS02001641           JUNCTION     0.91     2.01     8.44     0  01:16        1.97
  YS02001644           JUNCTION     0.90     1.92     8.35     0  01:16        1.92
  YS02001647           JUNCTION     0.74     1.86     8.47     0  01:17        1.86
  YS02001649           JUNCTION     0.84     2.05     8.44     0  01:17        2.05
  YS02001652           JUNCTION     0.75     2.16     8.76     0  01:17        2.16
  YS02001655           JUNCTION     0.68     2.20     9.05     0  01:17        2.20
  YS02001658           JUNCTION     0.59     2.30     9.44     0  01:16        2.30
  YS02001661           JUNCTION     0.56     2.46     9.86     0  01:30        2.46
  YS02001664           JUNCTION     0.36     2.31    10.23     0  01:30        2.31
  YS02001745           JUNCTION     0.41     2.35     9.87     0  01:31        2.35
  YS02001748           JUNCTION     0.56     2.27     9.35     0  01:31        2.27
  YS02001751           JUNCTION     0.62     2.20     9.08     0  01:16        2.20
  YS02001754           JUNCTION     0.72     2.20     8.81     0  01:16        2.20
  YS02001757           JUNCTION     0.90     2.21     8.47     0  01:30        2.21
  YS02001759           JUNCTION     0.85     2.21     8.57     0  01:29        2.21
  YS02001762           JUNCTION     0.83     2.15     8.55     0  01:29        2.15
  YS02001765           JUNCTION     0.81     2.10     8.55     0  02:15        2.08
  YS02001767           JUNCTION     0.79     2.03     8.52     0  01:31        2.03
  YS02001770           JUNCTION     0.79     1.95     8.44     0  01:16        1.95
  YS02001774           JUNCTION     0.84     2.04     8.47     0  02:15        2.03
  YS02001779           JUNCTION     0.66     1.68     8.37     0  01:15        1.68
  YS02001783           JUNCTION     0.51     1.55     7.69     0  01:31        1.55
  YS02001784           JUNCTION     0.48     1.38     7.45     0  01:31        1.38
  YS02001786           JUNCTION     0.38     1.00     7.03     0  01:31        0.99
  YS02001788           JUNCTION     0.27     0.70     6.67     0  01:41        0.69
  YS02001790           JUNCTION     0.31     0.79     6.43     0  01:48        0.78
  YS02001791           JUNCTION     0.19     0.47     5.94     0  01:41        0.46
  YS02001793           JUNCTION     0.11     0.38     5.21     0  01:52        0.37
  YS02001882           JUNCTION     0.67     1.83     8.55     0  01:29        1.83
  YS02001884           JUNCTION     0.75     1.93     8.55     0  01:29        1.93
  YS02001887           JUNCTION     0.82     2.00     8.54     0  01:29        2.00
  YS02001890           JUNCTION     0.82     1.81     8.32     0  01:14        1.81
  YS02001895           JUNCTION     0.61     1.58     8.33     0  01:22        1.57
  YS02001898           JUNCTION     0.61     1.62     8.35     0  01:31        1.62
  YS02001901           JUNCTION     0.71     1.74     8.35     0  01:31        1.74
  YS02001904           JUNCTION     0.69     1.71     8.34     0  01:31        1.71
  YS02001907           JUNCTION     0.98     1.96     8.25     0  01:14        1.96
  YS02001910           JUNCTION     0.85     2.02     8.53     0  02:07        2.02
  YS02001915           JUNCTION     0.72     2.00     8.72     0  01:22        2.00
  YS02001918           JUNCTION     0.57     1.81     8.88     0  01:15        1.81
  YS02001920           JUNCTION     0.65     2.14     9.15     0  01:15        2.09
  YS02001923           JUNCTION     0.52     2.03     9.29     0  01:15        1.92
  YS02001926           JUNCTION     0.50     1.90     9.35     0  01:15        1.89
  YS02001929           JUNCTION     0.40     1.78     9.47     0  01:15        1.78
  YS02006553           JUNCTION     1.00     2.16     8.45     0  01:31        2.16
  YS02006556           JUNCTION     0.99     2.36     8.67     0  01:30        2.36
  YS02006558           JUNCTION     1.05     2.50     8.77     0  01:30        2.50
  YS02006561           JUNCTION     0.37     1.29     7.95     0  01:31        1.29
  YS02163301           JUNCTION     0.87     1.97     8.49     0  01:31        1.97
  YS02163601           JUNCTION     0.97     2.08     8.48     0  01:16        2.08
  YS02164001           JUNCTION     0.90     2.03     8.49     0  01:16        2.01
  CC-1                 OUTFALL      0.00     0.00     0.00     0  00:00        0.00
  CC-2                 OUTFALL      0.00     0.00     0.00     0  00:00        0.00
  JK-1                 OUTFALL      0.00     0.00     0.00     0  00:00        0.00
  JK-2                 OUTFALL      0.00     0.00     0.00     0  00:00        0.00
  WSC                  OUTFALL      0.18     0.30     0.97     0  01:58        0.30
  CC-storage           STORAGE      1.23     2.30     7.80     0  02:14        2.30
  JK-storage           STORAGE      1.88     4.30     5.10     0  01:40        4.29
  
  
  *******************
  Node Inflow Summary
  *******************
  
  -------------------------------------------------------------------------------------------------
                                  Maximum  Maximum                  Lateral       Total        Flow
                                  Lateral    Total  Time of Max      Inflow      Inflow     Balance
                                   Inflow   Inflow   Occurrence      Volume      Volume       Error
  Node                 Type           LPS      LPS  days hr:min    10^6 ltr    10^6 ltr     Percent
  -------------------------------------------------------------------------------------------------
  WS02003060           JUNCTION     16.53   549.32     0  01:56       0.471        5.84       0.032
  WS02003066           JUNCTION      0.00   532.77     0  01:56           0        5.38       0.022
  WS02003067           JUNCTION      0.00   532.77     0  01:55           0        5.38       0.074
  WS02003069           JUNCTION      0.32   549.64     0  01:56     0.00912        5.85       0.059
  WS02003072           JUNCTION      0.00   549.59     0  01:57           0        5.85       0.108
  WS02003073           JUNCTION      1.82   551.29     0  01:57      0.0519        5.89       0.082
  WS02004401           JUNCTION      0.00   537.82     0  01:45           0        5.47       0.180
  WS02004402           JUNCTION      0.00   535.50     0  01:52           0        5.47       0.183
  WS02004403           JUNCTION      0.00   534.91     0  01:54           0        5.46       0.180
  WS02004404           JUNCTION      0.16   534.50     0  01:52     0.00462        5.45       0.150
  WS02004405           JUNCTION      0.04   534.73     0  01:52     0.00109        5.44       0.225
  WS02004406           JUNCTION      0.00   535.08     0  01:52           0        5.43       0.372
  WS02004407           JUNCTION      0.00   534.23     0  01:52           0        5.41       0.016
  WS02004409           JUNCTION      0.00   533.88     0  01:54           0        5.41       0.040
  WS02004410           JUNCTION      0.00   533.36     0  01:54           0        5.41       0.072
  WS02004411           JUNCTION      0.00   533.14     0  01:54           0         5.4       0.094
  WS02004412           JUNCTION      0.00   532.93     0  01:55           0         5.4       0.129
  WS02004413           JUNCTION      0.00   532.89     0  01:55           0        5.39       0.235
  WS02006109           JUNCTION      1.23   574.91     0  02:07      0.0351        5.52       0.102
  WS02006110           JUNCTION      0.00   580.17     0  02:07           0        5.51       0.126
  WS02006111           JUNCTION      0.00   561.12     0  01:59           0         5.5       0.011
  WS02006112           JUNCTION      0.00   541.54     0  01:46           0         5.5       0.320
  WS02006113           JUNCTION      0.00   574.72     0  02:56           0         5.5       0.026
  WS02006115           JUNCTION      0.00   550.79     0  03:02           0        5.48       0.118
  WS02006116           JUNCTION      0.00   537.32     0  01:56           0        5.48       0.051
  WS02006228           JUNCTION      0.00   563.06     0  02:07           0        5.48       0.038
  WS02006229           JUNCTION      0.00   562.81     0  02:07           0        5.49       0.085
  WS02006230           JUNCTION     10.28   595.80     0  02:13       0.293        5.49      -0.020
  WS02006231           JUNCTION      0.00   587.98     0  02:53           0        5.19      -0.138
  WS02006232           JUNCTION      0.00   586.98     0  02:53           0         5.2       0.263
  WS02006234           JUNCTION      0.00   580.93     0  02:53           0        5.19      -0.179
  WS02006235           JUNCTION      0.00   574.78     0  02:08           0        5.19       0.021
  WS02006238           JUNCTION      0.00   429.17     0  03:04           0         4.5      -0.055
  WS02006239           JUNCTION      0.00   429.69     0  03:04           0         4.5      -0.105
  WS02006240           JUNCTION      0.00   426.51     0  03:04           0         4.5       0.008
  WS02006242           JUNCTION      0.00   426.97     0  02:27           0         4.5       0.080
  WS02006243           JUNCTION      0.00   427.70     0  02:27           0         4.5       0.015
  WS02006245           JUNCTION      0.00   428.09     0  02:27           0        4.51       0.147
  WS02006247           JUNCTION      0.00   428.61     0  02:27           0        4.51       0.028
  WS02006248           JUNCTION      0.00   427.75     0  02:49           0        4.52       0.062
  WS02006249           JUNCTION      0.00   427.76     0  02:27           0        4.68       0.136
  WS02006251           JUNCTION      0.08   412.04     0  03:04     0.00219        4.67      -0.192
  WS02006252           JUNCTION      0.00   400.00     0  01:19           0        4.64      -0.654
  WS02006256           JUNCTION      0.00   300.00     0  01:28           0         1.1      -2.916
  WSF200               JUNCTION      0.00   532.78     0  01:56           0        5.37       0.006
  YS02001580           JUNCTION      0.00   145.93     0  01:12           0     0.00462      -1.030
  YS02001583           JUNCTION      0.00   240.26     0  01:12           0       0.015     -10.620
  YS02001586           JUNCTION  11590.69 11590.72     0  01:39        18.4        18.4       0.011
  YS02001590           JUNCTION      0.00   318.95     0  01:46           0        2.69      -0.024
  YS02001593           JUNCTION      0.00   318.56     0  01:46           0        2.69       0.010
  YS02001596           JUNCTION      0.00   318.18     0  02:28           0        2.69      -0.015
  YS02001600           JUNCTION      0.00   318.69     0  01:31           0        2.69       0.011
  YS02001601           JUNCTION  18780.91 19098.17     0  01:38        23.8        26.5       0.000
  YS02001602           JUNCTION      0.00   597.68     0  01:12           0        3.62       0.014
  YS02001605           JUNCTION      0.00   597.84     0  01:12           0        3.18       0.017
  YS02001607           JUNCTION      0.00   597.69     0  01:12           0        3.18       0.042
  YS02001610           JUNCTION      0.00   954.78     0  01:39           0        6.27       0.039
  YS02001613           JUNCTION      0.00   618.71     0  01:49           0        4.09      -0.004
  YS02001616           JUNCTION      0.00   630.01     0  02:15           0         4.1       0.010
  YS02001619           JUNCTION  20240.00 20240.00     0  01:38        29.7        30.7      -0.001
  YS02001622           JUNCTION      0.00  1054.03     0  01:49           0        8.21      -0.001
  YS02001625           JUNCTION      0.00  1505.51     0  01:37           0        10.5       0.119
  YS02001629           JUNCTION      0.00  1139.07     0  01:39           0        6.09      -0.034
  YS02001633           JUNCTION  14080.62 14080.62     0  01:38        17.7        19.5       0.014
  YS02001641           JUNCTION      0.00  1404.73     0  01:14           0        6.53       0.046
  YS02001644           JUNCTION  12439.17 14190.24     0  01:38        15.4        24.7       0.010
  YS02001647           JUNCTION      0.00  1868.42     0  01:14           0        6.33       0.007
  YS02001649           JUNCTION      0.00  3237.17     0  01:51           0        13.6      -0.001
  YS02001652           JUNCTION      0.00  2429.34     0  01:39           0        8.85      -0.035
  YS02001655           JUNCTION      0.15  2731.44     0  01:47     0.00439        9.33       0.022
  YS02001658           JUNCTION      0.00  2783.85     0  01:50           0         9.4       0.001
  YS02001661           JUNCTION      0.00  2783.87     0  01:44           0         9.4      -0.050
  YS02001664           JUNCTION  11998.81 11998.81     0  01:37        14.5        14.5      -0.002
  YS02001745           JUNCTION   7414.76  7414.76     0  01:37        8.44        8.44       0.019
  YS02001748           JUNCTION      0.04  3122.13     0  01:41     0.00128           7      -0.034
  YS02001751           JUNCTION      0.01  2360.57     0  01:33    0.000313        6.35       0.021
  YS02001754           JUNCTION      0.26  2360.46     0  01:33     0.00741        6.36      -0.037
  YS02001757           JUNCTION      0.00  3797.64     0  01:33           0        20.3       0.023
  YS02001759           JUNCTION  10328.19 10328.19     0  01:37        11.8        13.5      -0.005
  YS02001762           JUNCTION      0.00   782.40     0  01:17           0        3.34      -0.004
  YS02001765           JUNCTION      0.00   782.36     0  01:17           0        3.34       0.005
  YS02001767           JUNCTION      0.54   782.47     0  01:17      0.0152        3.34      -0.003
  YS02001770           JUNCTION  14692.63 15414.87     0  01:37        17.6        19.2      -0.008
  YS02001774           JUNCTION      0.00   852.19     0  01:46           0        3.93       0.015
  YS02001779           JUNCTION      0.01   851.79     0  02:11    0.000142        3.89      -0.026
  YS02001783           JUNCTION      0.00  1322.52     0  01:47           0        9.01       0.003
  YS02001784           JUNCTION      1.06  1323.10     0  01:47      0.0302        9.04       0.006
  YS02001786           JUNCTION      0.06  1323.12     0  01:47      0.0016        9.04       0.007
  YS02001788           JUNCTION      0.07  1323.56     0  01:46     0.00202        9.04       0.002
  YS02001790           JUNCTION      0.15  1346.84     0  01:40     0.00442        9.04       0.034
  YS02001791           JUNCTION      0.00  1419.50     0  01:48           0        9.04      -0.058
  YS02001793           JUNCTION      0.00  1447.21     0  01:48           0        9.05      -0.000
  YS02001882           JUNCTION      0.00    88.07     0  01:13           0      0.0139       5.916
  YS02001884           JUNCTION      0.00   156.06     0  01:11           0      0.0506       5.695
  YS02001887           JUNCTION  10889.72 10889.74     0  01:37          12          12       0.033
  YS02001890           JUNCTION      0.00  2052.03     0  01:41           0        7.34       0.070
  YS02001895           JUNCTION      0.00   527.73     0  02:15           0        3.35       0.094
  YS02001898           JUNCTION      0.00   520.77     0  02:15           0        3.34      -0.028
  YS02001901           JUNCTION      0.00   536.05     0  01:14           0        3.35       0.109
  YS02001904           JUNCTION      0.00   541.08     0  01:14           0        3.37       0.089
  YS02001907           JUNCTION      0.00  4674.98     0  01:45           0        18.7       0.094
  YS02001910           JUNCTION      0.00  1993.23     0  01:33           0        10.7       0.067
  YS02001915           JUNCTION  13473.55 14695.24     0  01:38        16.8        21.9       0.005
  YS02001918           JUNCTION      0.00  1682.32     0  01:44           0        5.93       0.003
  YS02001920           JUNCTION      2.87  1682.60     0  01:45      0.0818        5.91       0.015
  YS02001923           JUNCTION      0.04  1679.65     0  01:39     0.00107        5.81      -0.015
  YS02001926           JUNCTION      0.05  1679.64     0  01:38     0.00149        5.79      -0.009
  YS02001929           JUNCTION   6758.81  6758.81     0  01:38        8.84        8.84      -0.002
  YS02006553           JUNCTION      0.00  2161.98     0  01:35           0        6.93       0.171
  YS02006556           JUNCTION      0.00  2163.05     0  01:35           0        6.95       0.127
  YS02006558           JUNCTION  15049.74 15049.74     0  01:37        17.7        19.9       0.016
  YS02006561           JUNCTION      0.00  1322.16     0  01:47           0        9.01       0.000
  YS02163301           JUNCTION      0.00  1138.97     0  01:51           0         6.1       0.019
  YS02163601           JUNCTION      0.11  1409.97     0  01:14     0.00313        6.51       0.074
  YS02164001           JUNCTION      0.00  1408.34     0  01:14           0        6.51       0.031
  CC-1                 OUTFALL       0.00   683.00     0  01:22           0        6.15       0.000
  CC-2                 OUTFALL       0.00   683.00     0  00:00           0        8.36       0.000
  JK-1                 OUTFALL       0.00  1000.00     0  00:00           0        8.03       0.000
  JK-2                 OUTFALL       0.00  1000.00     0  01:40           0      0.0961       0.000
  WSC                  OUTFALL       0.00   551.05     0  01:58           0        5.89       0.000
  CC-storage           STORAGE       0.00  3476.09     0  01:19           0        21.2      -0.139
  JK-storage           STORAGE       0.00  1507.63     0  01:40           0         9.2      -0.293
  
  
  **********************
  Node Surcharge Summary
  **********************
  
  Surcharging occurs when water rises above the top of the highest conduit.
  ---------------------------------------------------------------------
                                               Max. Height   Min. Depth
                                   Hours       Above Crown    Below Rim
  Node                 Type      Surcharged         Meters       Meters
  ---------------------------------------------------------------------
  WS02006109           JUNCTION        2.83          0.563        1.257
  WS02006110           JUNCTION        0.42          0.604        1.246
  WS02006112           JUNCTION        0.81          0.119        1.561
  WS02006228           JUNCTION        2.82          0.558        1.642
  WS02006229           JUNCTION        2.83          0.523        1.927
  WS02006230           JUNCTION        0.39          0.517        1.053
  WS02006231           JUNCTION        0.85          1.304        0.226
  WS02006232           JUNCTION        2.84          1.215        0.265
  WS02006234           JUNCTION        1.24          1.240        0.000
  WS02006235           JUNCTION        2.58          1.290        0.000
  WS02006238           JUNCTION        2.75          1.403        0.027
  WS02006239           JUNCTION        2.72          1.290        0.000
  WS02006240           JUNCTION        2.81          1.145        0.245
  WS02006242           JUNCTION        2.85          0.820        0.000
  WS02006243           JUNCTION        2.81          0.770        0.000
  WS02006245           JUNCTION        2.81          0.738        0.112
  WS02006247           JUNCTION        2.81          0.651        0.109
  WS02006248           JUNCTION        2.81          0.380        0.000
  WS02006249           JUNCTION        2.81          0.390        0.000
  WS02006251           JUNCTION        1.06          0.544        0.636
  WS02006252           JUNCTION        2.96          1.100        0.000
  WS02006256           JUNCTION        4.30          2.050        0.000
  YS02001580           JUNCTION        1.98          0.450        0.000
  YS02001583           JUNCTION        1.98          0.500        0.000
  YS02001586           JUNCTION        2.06          0.510        0.000
  YS02001590           JUNCTION        2.12          0.750        0.000
  YS02001593           JUNCTION        2.12          0.740        0.100
  YS02001596           JUNCTION        2.19          0.990        0.080
  YS02001600           JUNCTION        2.28          1.190        0.000
  YS02001601           JUNCTION        2.49          1.440        0.000
  YS02001602           JUNCTION        2.44          1.270        0.000
  YS02001605           JUNCTION        2.42          1.180        0.000
  YS02001607           JUNCTION        2.14          0.680        0.000
  YS02001610           JUNCTION        2.15          0.680        0.000
  YS02001613           JUNCTION        2.14          0.700        0.000
  YS02001616           JUNCTION        2.11          0.610        0.000
  YS02001619           JUNCTION        2.10          0.610        0.000
  YS02001622           JUNCTION        2.10          0.607        0.013
  YS02001625           JUNCTION        2.25          0.780        0.000
  YS02001629           JUNCTION        2.07          0.470        0.000
  YS02001633           JUNCTION        2.31          1.060        0.000
  YS02001641           JUNCTION        2.31          1.005        0.095
  YS02001644           JUNCTION        2.31          0.920        0.000
  YS02001647           JUNCTION        2.15          0.863        0.037
  YS02001649           JUNCTION        2.29          1.050        0.000
  YS02001652           JUNCTION        2.12          1.130        0.000
  YS02001655           JUNCTION        1.98          1.200        0.000
  YS02001658           JUNCTION        1.78          1.300        0.000
  YS02001661           JUNCTION        1.11          1.390        0.000
  YS02001664           JUNCTION        0.73          1.310        0.000
  YS02001745           JUNCTION        0.76          1.350        0.000
  YS02001748           JUNCTION        1.74          1.190        0.000
  YS02001751           JUNCTION        1.94          1.200        0.000
  YS02001754           JUNCTION        2.08          1.150        0.000
  YS02001757           JUNCTION        2.36          1.210        0.000
  YS02001759           JUNCTION        2.28          1.210        0.000
  YS02001762           JUNCTION        2.26          1.150        0.000
  YS02001765           JUNCTION        2.23          1.100        0.000
  YS02001767           JUNCTION        2.19          1.030        0.000
  YS02001770           JUNCTION        2.18          0.920        0.000
  YS02001774           JUNCTION        2.25          1.045        0.005
  YS02001779           JUNCTION        2.06          0.680        0.000
  YS02001783           JUNCTION        1.89          0.754        0.846
  YS02001784           JUNCTION        1.88          0.584        0.906
  YS02001786           JUNCTION        1.81          0.202        1.228
  YS02001882           JUNCTION        1.86          0.830        0.000
  YS02001884           JUNCTION        1.87          0.870        0.000
  YS02001887           JUNCTION        1.89          0.950        0.000
  YS02001890           JUNCTION        1.90          0.760        0.000
  YS02001895           JUNCTION        1.86          0.583        0.167
  YS02001898           JUNCTION        1.85          0.586        0.154
  YS02001901           JUNCTION        1.89          0.744        0.126
  YS02001904           JUNCTION        1.88          0.712        0.138
  YS02001907           JUNCTION        1.99          0.950        0.000
  YS02001910           JUNCTION        1.91          1.023        0.077
  YS02001915           JUNCTION        1.86          1.000        0.000
  YS02001918           JUNCTION        1.81          0.810        0.000
  YS02001920           JUNCTION        1.82          1.140        0.000
  YS02001923           JUNCTION        1.21          0.820        0.000
  YS02001926           JUNCTION        1.29          0.900        0.000
  YS02001929           JUNCTION        0.98          0.780        0.000
  YS02006553           JUNCTION        2.01          1.163        0.027
  YS02006556           JUNCTION        1.95          1.318        0.032
  YS02006558           JUNCTION        1.95          1.400        0.000
  YS02006561           JUNCTION        1.78          0.490        0.660
  YS02163301           JUNCTION        2.28          0.974        0.056
  YS02163601           JUNCTION        2.35          1.080        0.000
  YS02164001           JUNCTION        2.30          1.034        0.066
  
  
  *********************
  Node Flooding Summary
  *********************
  
  Flooding refers to all water that overflows a node, whether it ponds or not.
  --------------------------------------------------------------------------
                                                             Total   Maximum
                                 Maximum   Time of Max       Flood    Ponded
                        Hours       Rate    Occurrence      Volume     Depth
  Node                 Flooded       LPS   days hr:min    10^6 ltr    Meters
  --------------------------------------------------------------------------
  WS02006234              0.01      5.31      0  02:07       0.000     0.000
  WS02006235              0.01     17.85      0  02:26       0.000     0.000
  WS02006239              0.01      5.78      0  02:26       0.000     0.000
  WS02006242              0.01     22.37      0  02:26       0.000     0.000
  WS02006243              0.01      4.69      0  02:31       0.000     0.000
  WS02006248              0.11     28.29      0  01:59       0.004     0.000
  WS02006249              1.00     85.54      0  01:45       0.161     0.000
  WS02006252              0.01     69.67      0  02:35       0.000     0.000
  WS02006256              1.01    285.17      0  02:23       0.440     0.000
  YS02001580              0.01     68.26      0  01:12       0.000     0.000
  YS02001583              0.01    134.58      0  01:12       0.000     0.000
  YS02001586              1.91  11270.29      0  01:39      15.738     0.000
  YS02001590              0.01      2.84      0  01:12       0.000     0.000
  YS02001600              0.01      5.55      0  01:12       0.000     0.000
  YS02001601              2.00  18696.52      0  01:38      22.880     0.000
  YS02001602              1.99     62.33      0  02:07       0.436     0.000
  YS02001605              0.01     22.36      0  01:13       0.000     0.000
  YS02001607              0.01    131.98      0  01:13       0.000     0.000
  YS02001610              1.93    954.33      0  01:39       5.276     0.000
  YS02001613              0.01     77.24      0  01:13       0.000     0.000
  YS02001616              0.64     41.57      0  01:13       0.003     0.000
  YS02001619              1.13  18569.78      0  01:38      19.426     0.000
  YS02001625              1.93   1505.27      0  02:12       8.684     0.000
  YS02001629              1.18    686.88      0  01:33       2.051     0.000
  YS02001633              0.64  12035.19      0  01:38       8.627     0.000
  YS02001644              1.74  14188.85      0  01:38      21.182     0.000
  YS02001649              0.72   2390.26      0  01:44       4.425     0.000
  YS02001652              0.01     42.00      0  01:17       0.000     0.000
  YS02001655              0.47    303.29      0  01:38       0.480     0.000
  YS02001658              0.43    305.35      0  01:16       0.078     0.000
  YS02001661              0.01      0.85      0  01:30       0.000     0.000
  YS02001664              0.42   9212.26      0  01:37       5.110     0.000
  YS02001745              0.21   4287.39      0  01:37       1.442     0.000
  YS02001748              0.29    770.01      0  01:39       0.661     0.000
  YS02001751              0.01    415.98      0  01:16       0.000     0.000
  YS02001754              0.01    131.57      0  01:16       0.000     0.000
  YS02001757              0.27    318.83      0  01:49       0.134     0.000
  YS02001759              0.42   8184.38      0  01:37       4.351     0.000
  YS02001762              0.21     10.87      0  02:15       0.001     0.000
  YS02001765              0.01      7.20      0  02:15       0.000     0.000
  YS02001767              0.01      3.84      0  02:15       0.000     0.000
  YS02001770              0.97  14562.28      0  01:37      13.591     0.000
  YS02001779              1.72    851.49      0  02:11       3.877     0.000
  YS02001882              0.01      4.29      0  01:46       0.000     0.000
  YS02001884              0.05      0.97      0  01:46       0.000     0.000
  YS02001887              0.45   8824.08      0  01:37       4.624     0.000
  YS02001890              1.31   1541.13      0  01:31       3.992     0.000
  YS02001907              1.78   4672.97      0  01:45      16.524     0.000
  YS02001915              0.86  12700.46      0  01:38      11.189     0.000
  YS02001918              0.57    460.38      0  01:45       0.797     0.000
  YS02001920              0.01     38.64      0  01:15       0.000     0.000
  YS02001923              0.01    328.44      0  01:15       0.001     0.000
  YS02001926              0.01    111.43      0  01:15       0.001     0.000
  YS02001929              0.43   5078.59      0  01:38       3.074     0.000
  YS02006558              0.40  11564.52      0  01:37       6.118     0.000
  YS02163601              0.01      5.86      0  01:16       0.000     0.000
  CC-storage              0.78    701.98      0  02:16       0.488     0.000
  
  
  **********************
  Storage Volume Summary
  **********************
  
  ------------------------------------------------------------------------------------------------
                         Average    Avg   Evap  Exfil     Maximum    Max    Time of Max    Maximum
                          Volume   Pcnt   Pcnt   Pcnt      Volume   Pcnt     Occurrence    Outflow
  Storage Unit           1000 m³   Full   Loss   Loss     1000 m³   Full    days hr:min        LPS
  ------------------------------------------------------------------------------------------------
  CC-storage               3.432   53.5    0.0    0.0       6.410  100.0       0  02:14    1766.00
  JK-storage               0.095   32.5    0.0    0.0       0.216   74.2       0  01:40    2300.00
  
  
  ***********************
  Outfall Loading Summary
  ***********************
  
  -----------------------------------------------------------
                         Flow       Avg       Max       Total
                         Freq      Flow      Flow      Volume
  Outfall Node           Pcnt       LPS       LPS    10^6 ltr
  -----------------------------------------------------------
  CC-1                  40.98    683.00    683.00       6.150
  CC-2                  68.81    683.00    683.00       8.357
  JK-1                  42.43    962.50   1000.00       8.030
  JK-2                   0.40   1000.00   1000.00       0.096
  WSC                   99.96    272.53    551.05       5.889
  -----------------------------------------------------------
  System                50.51   3601.03   3902.30      28.523
  
  
  ********************
  Link Flow Summary
  ********************
  
  -----------------------------------------------------------------------------
                                 Maximum  Time of Max   Maximum    Max/    Max/
                                  |Flow|   Occurrence   |Veloc|    Full    Full
  Link                 Type          LPS  days hr:min     m/sec    Flow   Depth
  -----------------------------------------------------------------------------
  1                    CONDUIT    551.05     0  01:58      2.82    0.19    0.30
  WS02003060WS02003069 CONDUIT    549.32     0  01:56      1.64    0.22    0.34
  WS02003066WSF200     CONDUIT    532.78     0  01:56      2.85    0.09    0.22
  WS02003067WS02003066 CONDUIT    532.77     0  01:56      1.20    0.17    0.41
  WS02003069WS02003072 CONDUIT    549.59     0  01:57      1.37    0.26    0.39
  WS02003072WS02003073 CONDUIT    549.47     0  01:57      1.43    1.19    0.37
  WS02004401WS02004402 CONDUIT    535.50     0  01:52      0.96    0.64    0.86
  WS02004402WS02004403 CONDUIT    534.91     0  01:54      0.99    0.77    0.88
  WS02004403WS02004404 CONDUIT    534.34     0  01:52      0.98    0.39    0.93
  WS02004404WS02004405 CONDUIT    534.70     0  01:52      1.11    5.24    0.96
  WS02004405WS02004406 CONDUIT    535.08     0  01:52      1.02    1.06    0.95
  WS02004406WS02004407 CONDUIT    534.23     0  01:52      1.04    0.24    0.62
  WS02004407WS02004409 CONDUIT    533.88     0  01:54      1.56    0.19    0.48
  WS02004409WS02004410 CONDUIT    533.36     0  01:54      1.05    0.69    0.67
  WS02004410WS02004411 CONDUIT    533.14     0  01:54      0.99    0.73    0.68
  WS02004411WS02004412 CONDUIT    532.93     0  01:55      0.92    0.76    0.69
  WS02004412WS02004413 CONDUIT    532.89     0  01:55      0.83    0.36    0.78
  WS02004413WS02003067 CONDUIT    532.77     0  01:55      1.11    0.23    0.59
  WS02006109WS02006110 CONDUIT    580.17     0  02:07      1.16    1.12    1.00
  WS02006110WS02006113 CONDUIT    574.72     0  02:56      1.38    0.52    0.78
  WS02006111WS02006112 CONDUIT    541.54     0  01:46      1.59    0.26    0.67
  WS02006112WS02006115 CONDUIT    550.79     0  03:02      0.87    0.33    0.87
  WS02006113WS02006111 CONDUIT    561.12     0  01:59      2.47    0.67    0.46
  WS02006115WS02006116 CONDUIT    537.32     0  01:56      1.08    0.69    0.76
  WS02006116WS02004401 CONDUIT    537.82     0  01:45      0.96    0.74    0.84
  WS02006228WS02006109 CONDUIT    573.68     0  02:07      1.14    2.51    1.00
  WS02006229WS02006228 CONDUIT    563.06     0  02:07      1.12    1.86    1.00
  WS02006230WS02006229 CONDUIT    562.81     0  02:07      1.46   12.53    1.00
  WS02006231WS02006230 CONDUIT    585.52     0  02:13      1.61    8.88    1.00
  WS02006232WS02006231 CONDUIT    587.98     0  02:53      1.53    1.23    1.00
  WS02006234WS02006232 CONDUIT    586.98     0  02:53      1.53    1.19    1.00
  WS02006235WS02006234 CONDUIT    580.93     0  02:53      1.51    6.13    1.00
  WS02006238WS02006235 CONDUIT    431.00     0  02:55      1.27    0.96    1.00
  WS02006239WS02006238 CONDUIT    429.17     0  03:04      1.15    1.37    1.00
  WS02006240WS02006239 CONDUIT    429.69     0  03:04      1.30    1.35    1.00
  WS02006242WS02006240 CONDUIT    426.51     0  03:04      1.16    1.69    1.00
  WS02006243WS02006242 CONDUIT    426.97     0  02:27      1.34    0.91    1.00
  WS02006245WS02006243 CONDUIT    427.70     0  02:27      1.41    1.27    1.00
  WS02006247WS02006245 CONDUIT    428.09     0  02:27      1.36    3.39    1.00
  WS02006248WS02006247 CONDUIT    428.61     0  02:27      1.31    0.93    1.00
  WS02006249WS02006248 CONDUIT    427.75     0  02:49      1.36    2.34    1.00
  WS02006251WS02006249 CONDUIT    427.76     0  02:27      1.80    1.23    1.00
  WS02006252WS02006251 CONDUIT    411.96     0  03:04      3.87    1.51    1.00
  WS02006256WS02006235 CONDUIT    220.62     0  01:28      3.12    2.33    1.00
  WSF200WS02003060     CONDUIT    532.79     0  01:56      2.06    0.12    0.28
  YS02001580YS02001583 CONDUIT    145.93     0  01:12      0.85    0.57    1.00
  YS02001583YS02001586 CONDUIT    188.19     0  01:12      0.83    0.28    1.00
  YS02001586YS02001590 CONDUIT    318.95     0  01:46      1.31    0.56    1.00
  YS02001590YS02001593 CONDUIT    318.56     0  01:46      1.13    2.00    1.00
  YS02001593YS02001596 CONDUIT    318.18     0  02:28      1.69    0.50    1.00
  YS02001596YS02001600 CONDUIT    318.69     0  01:31      1.26    0.62    1.00
  YS02001600YS02001601 CONDUIT    318.34     0  01:56      1.13    0.55    1.00
  YS02001601YS02001602 CONDUIT    597.68     0  01:12      2.11    2.16    1.00
  YS02001602YS02001605 CONDUIT    597.84     0  01:12      2.11   12.65    1.00
  YS02001605YS02001607 CONDUIT    597.69     0  01:12      2.11    3.28    1.00
  YS02001607YS02001610 CONDUIT    576.77     0  01:12      0.82    0.55    1.00
  YS02001610YS02001613 CONDUIT    618.46     0  01:38      0.79    0.71    1.00
  YS02001613YS02001616 CONDUIT    618.71     0  01:49      0.82    0.53    1.00
  YS02001616YS02001619 CONDUIT    630.01     0  02:15      0.83    1.09    1.00
  YS02001619YS02001622 CONDUIT   1054.03     0  01:49      1.78    1.55    1.00
  YS02001622YS02001625 CONDUIT   1053.72     0  01:37      1.34    0.56    1.00
  YS02001625YS02001629 CONDUIT    908.96     0  01:14      1.16    0.43    1.00
  YS02001629YS02163301 CONDUIT   1139.07     0  01:39      1.45    1.40    1.00
  YS02001633YS02163601 CONDUIT   1409.86     0  01:14      1.80    1.48    1.00
  YS02001641YS02001644 CONDUIT   1402.80     0  01:14      1.79    4.53    1.00
  YS02001644YS02001647 CONDUIT   1868.42     0  01:14      2.39    1.10    1.00
  YS02001647YS02001649 CONDUIT   1858.57     0  01:14      2.40    0.98    1.00
  YS02001649YS02001757 CONDUIT   2200.16     0  01:15      2.80    1.34    1.00
  YS02001652YS02001649 CONDUIT   2429.38     0  01:38      3.09    1.20    1.00
  YS02001655YS02001652 CONDUIT   2429.34     0  01:39      3.09    1.18    1.00
  YS02001658YS02001655 CONDUIT   2731.29     0  01:47      3.48    1.16    1.00
  YS02001661YS02001658 CONDUIT   2783.85     0  01:50      3.54    1.09    1.00
  YS02001664YS02001661 CONDUIT   2783.87     0  01:44      3.54    0.87    1.00
  YS02001745YS02001748 CONDUIT   3122.08     0  01:41      3.98    1.20    1.00
  YS02001748YS02001751 CONDUIT   2360.56     0  01:33      3.01    1.19    1.00
  YS02001751YS02001754 CONDUIT   2360.20     0  01:33      3.01    1.14    1.00
  YS02001754YS02001757 CONDUIT   2360.72     0  01:34      3.01    0.95    1.00
  YS02001757CaochengTiaoxuchi CONDUIT   3476.09     0  01:19      4.45    1.50    1.00
  YS02001759YS02001757 CONDUIT   1506.42     0  01:55      1.92    1.07    1.00
  YS02001762YS02001759 CONDUIT    782.71     0  01:17      1.00    0.90    1.00
  YS02001765YS02001762 CONDUIT    782.40     0  01:17      1.00    0.73    1.00
  YS02001767YS02001765 CONDUIT    782.36     0  01:17      1.00    0.98    1.00
  YS02001770YS02001767 CONDUIT    781.94     0  01:17      1.00    3.10    1.00
  YS02001774YS02001770 CONDUIT    852.19     0  01:46      1.09    0.54    1.00
  YS02001779YS02001774 CONDUIT    851.78     0  02:11      1.08    0.43    1.00
  YS02001783YS02001784 CONDUIT   1322.04     0  01:47      2.63    1.82    1.00
  YS02001784YS02001785 CONDUIT   1323.06     0  01:47      2.63    3.08    1.00
  YS02001786YS02001788 CONDUIT   1323.49     0  01:46      2.74    2.55    0.93
  YS02001788YS02001790 CONDUIT   1346.68     0  01:40      2.93    0.99    0.92
  YS02001790YS02001791 CONDUIT   1419.50     0  01:48      3.58    1.54    0.76
  YS02001791YS02001793 CONDUIT   1447.21     0  01:48      6.73    0.62    0.52
  YS02001793JiankangQianchi CONDUIT   1507.63     0  01:40      7.22    0.12    0.69
  YS02001882YS02001884 CONDUIT     88.07     0  01:13      0.39    0.10    1.00
  YS02001884YS02001887 CONDUIT    156.06     0  01:11      0.34    0.21    1.00
  YS02001887YS02001890 CONDUIT   2052.03     0  01:41      2.61    3.51    1.00
  YS02001890YS02001895 CONDUIT    527.73     0  02:15      0.67    0.25    1.00
  YS02001895YS02001898 CONDUIT    520.77     0  02:15      0.72    0.90    1.00
  YS02001898YS02001901 CONDUIT    536.05     0  01:14      0.68    0.35    1.00
  YS02001901YS02001904 CONDUIT    541.08     0  01:14      0.69    0.84    1.00
  YS02001904YS02001907 CONDUIT    548.60     0  01:14      0.70    0.19    1.00
  YS02001907YS02006553 CONDUIT   2161.91     0  01:42      2.40    2.54    1.00
  YS02001910YS02001907 CONDUIT   1993.07     0  01:48      2.54    1.12    1.00
  YS02001915YS02001910 CONDUIT   1993.23     0  01:33      2.54    0.99    1.00
  YS02001918YS02001915 CONDUIT   1221.69     0  01:59      1.56    0.67    1.00
  YS02001920YS02001918 CONDUIT   1682.32     0  01:44      2.14    1.63    1.00
  YS02001923YS02001920 CONDUIT   1679.73     0  01:45      2.14    0.75    1.00
  YS02001926YS02001923 CONDUIT   1679.61     0  01:39      2.14    2.40    1.00
  YS02001929YS02001926 CONDUIT   1679.58     0  01:38      2.14    0.80    1.00
  YS02006553YS02006556 CONDUIT   2161.98     0  01:35      2.75    1.85    1.00
  YS02006556YS02006558 CONDUIT   2163.05     0  01:35      2.75    1.71    1.00
  YS02006558YS02006561 CONDUIT   1322.16     0  01:47      4.68    2.92    1.00
  YS02006561YS02001783 CONDUIT   1322.52     0  01:47      2.63    0.68    1.00
  YS02163301YS02001633 CONDUIT   1138.97     0  01:51      1.45    1.07    1.00
  YS02163601YS02164001 CONDUIT   1408.34     0  01:14      1.79    1.25    1.00
  YS02164001YS02001641 CONDUIT   1404.73     0  01:14      1.79    1.92    1.00
  CC-R1                PUMP       683.00     0  01:22              1.00
  CC-R2                PUMP       683.00     0  00:00              1.00
  CC-S1                PUMP       200.00     0  01:16              1.00
  CC-S2                PUMP       200.00     0  00:00              1.00
  JK-R1                PUMP      1000.00     0  00:00              1.00
  JK-R2                PUMP      1000.00     0  01:40              1.00
  JK-S                 PUMP       300.00     0  01:28              1.00
  
  
  ***************************
  Flow Classification Summary
  ***************************
  
  -------------------------------------------------------------------------------------
                      Adjusted    ---------- Fraction of Time in Flow Class ---------- 
                       /Actual         Up    Down  Sub   Sup   Up    Down  Norm  Inlet 
  Conduit               Length    Dry  Dry   Dry   Crit  Crit  Crit  Crit  Ltd   Ctrl  
  -------------------------------------------------------------------------------------
  1                       1.00   0.00  0.00  0.00  0.00  1.00  0.00  0.00  0.57  0.00
  WS02003060WS02003069    1.00   0.00  0.00  0.00  0.98  0.02  0.00  0.00  0.62  0.00
  WS02003066WSF200        1.00   0.08  0.00  0.00  0.00  0.92  0.00  0.00  0.82  0.00
  WS02003067WS02003066    1.00   0.07  0.01  0.00  0.92  0.00  0.00  0.00  0.00  0.00
  WS02003069WS02003072    1.00   0.00  0.00  0.00  0.99  0.01  0.00  0.00  0.63  0.00
  WS02003072WS02003073    1.00   0.00  0.00  0.00  0.00  0.00  0.00  1.00  0.00  0.00
  WS02004401WS02004402    1.00   0.03  0.00  0.00  0.97  0.00  0.00  0.00  0.00  0.00
  WS02004402WS02004403    1.00   0.03  0.00  0.00  0.97  0.00  0.00  0.00  0.00  0.00
  WS02004403WS02004404    1.00   0.00  0.04  0.00  0.96  0.00  0.00  0.00  0.00  0.00
  WS02004404WS02004405    1.00   0.00  0.00  0.00  1.00  0.00  0.00  0.00  0.00  0.00
  WS02004405WS02004406    1.00   0.00  0.00  0.00  1.00  0.00  0.00  0.00  0.01  0.00
  WS02004406WS02004407    1.00   0.00  0.05  0.00  0.95  0.00  0.00  0.00  0.00  0.00
  WS02004407WS02004409    1.00   0.05  0.00  0.00  0.93  0.01  0.00  0.00  0.94  0.00
  WS02004409WS02004410    1.00   0.05  0.00  0.00  0.95  0.00  0.00  0.00  0.00  0.00
  WS02004410WS02004411    1.00   0.05  0.00  0.00  0.95  0.00  0.00  0.00  0.00  0.00
  WS02004411WS02004412    1.00   0.05  0.00  0.00  0.95  0.00  0.00  0.00  0.00  0.00
  WS02004412WS02004413    1.00   0.06  0.00  0.00  0.94  0.00  0.00  0.00  0.00  0.00
  WS02004413WS02003067    1.00   0.06  0.01  0.00  0.00  0.00  0.93  0.00  0.00  0.00
  WS02006109WS02006110    1.00   0.00  0.01  0.00  0.98  0.00  0.01  0.00  0.00  0.00
  WS02006110WS02006113    1.00   0.01  0.01  0.00  0.97  0.00  0.00  0.00  0.00  0.00
  WS02006111WS02006112    1.00   0.03  0.00  0.00  0.97  0.00  0.00  0.00  0.97  0.00
  WS02006112WS02006115    1.00   0.03  0.00  0.00  0.96  0.00  0.00  0.00  0.00  0.00
  WS02006113WS02006111    1.00   0.03  0.00  0.00  0.00  0.97  0.00  0.00  0.15  0.00
  WS02006115WS02006116    1.00   0.03  0.00  0.00  0.96  0.00  0.00  0.01  0.00  0.00
  WS02006116WS02004401    1.00   0.03  0.00  0.00  0.97  0.00  0.00  0.00  0.00  0.00
  WS02006228WS02006109    1.00   0.00  0.00  0.00  1.00  0.00  0.00  0.00  0.00  0.00
  WS02006229WS02006228    1.00   0.00  0.00  0.00  0.99  0.00  0.00  0.01  0.00  0.00
  WS02006230WS02006229    1.00   0.00  0.00  0.00  0.98  0.00  0.00  0.02  0.00  0.00
  WS02006231WS02006230    1.00   0.01  0.00  0.00  0.36  0.00  0.62  0.00  0.00  0.00
  WS02006232WS02006231    1.00   0.01  0.00  0.00  0.98  0.00  0.01  0.00  0.00  0.00
  WS02006234WS02006232    1.00   0.01  0.00  0.00  0.99  0.00  0.00  0.00  0.34  0.00
  WS02006235WS02006234    1.00   0.01  0.00  0.00  0.60  0.00  0.39  0.00  0.00  0.00
  WS02006238WS02006235    1.00   0.01  0.00  0.00  0.99  0.00  0.00  0.00  0.00  0.00
  WS02006239WS02006238    1.00   0.01  0.00  0.00  0.99  0.00  0.00  0.00  0.44  0.00
  WS02006240WS02006239    1.00   0.01  0.00  0.00  0.51  0.00  0.00  0.48  0.01  0.00
  WS02006242WS02006240    1.00   0.00  0.00  0.00  0.98  0.00  0.01  0.00  0.00  0.00
  WS02006243WS02006242    1.00   0.00  0.00  0.00  0.99  0.00  0.00  0.01  0.53  0.00
  WS02006245WS02006243    1.00   0.00  0.00  0.00  0.57  0.00  0.00  0.42  0.00  0.00
  WS02006247WS02006245    1.00   0.00  0.00  0.00  0.99  0.00  0.00  0.01  0.00  0.00
  WS02006248WS02006247    1.00   0.00  0.00  0.00  0.99  0.00  0.00  0.01  0.13  0.00
  WS02006249WS02006248    1.00   0.00  0.00  0.00  0.47  0.00  0.53  0.00  0.00  0.00
  WS02006251WS02006249    1.00   0.00  0.00  0.00  1.00  0.00  0.00  0.00  0.54  0.00
  WS02006252WS02006251    1.00   0.00  0.55  0.00  0.14  0.00  0.32  0.00  0.00  0.00
  WS02006256WS02006235    1.00   0.01  0.00  0.00  0.99  0.00  0.00  0.00  0.00  0.00
  WSF200WS02003060        1.00   0.00  0.08  0.00  0.42  0.50  0.00  0.00  0.52  0.00
  YS02001580YS02001583    1.00   0.15  0.49  0.00  0.36  0.00  0.00  0.00  0.58  0.00
  YS02001583YS02001586    1.00   0.36  0.22  0.00  0.41  0.00  0.00  0.00  0.58  0.00
  YS02001586YS02001590    1.00   0.13  0.00  0.00  0.53  0.04  0.00  0.31  0.28  0.00
  YS02001590YS02001593    1.00   0.13  0.00  0.00  0.28  0.00  0.59  0.00  0.00  0.00
  YS02001593YS02001596    1.00   0.13  0.00  0.00  0.29  0.01  0.00  0.58  0.01  0.00
  YS02001596YS02001600    1.00   0.13  0.00  0.00  0.32  0.01  0.00  0.54  0.02  0.00
  YS02001600YS02001601    1.00   0.13  0.00  0.00  0.87  0.00  0.00  0.00  0.51  0.00
  YS02001601YS02001602    1.00   0.13  0.00  0.00  0.87  0.00  0.00  0.00  0.00  0.00
  YS02001602YS02001605    1.00   0.13  0.00  0.00  0.87  0.00  0.00  0.00  0.00  0.00
  YS02001605YS02001607    1.00   0.13  0.00  0.00  0.87  0.00  0.00  0.00  0.00  0.00
  YS02001607YS02001610    1.00   0.13  0.00  0.00  0.87  0.00  0.00  0.00  0.00  0.00
  YS02001610YS02001613    1.00   0.13  0.00  0.00  0.87  0.00  0.00  0.00  0.00  0.00
  YS02001613YS02001616    1.00   0.13  0.00  0.00  0.87  0.00  0.00  0.00  0.00  0.00
  YS02001616YS02001619    1.00   0.13  0.00  0.00  0.87  0.00  0.00  0.00  0.00  0.00
  YS02001619YS02001622    1.00   0.13  0.00  0.00  0.87  0.00  0.00  0.00  0.23  0.00
  YS02001622YS02001625    1.00   0.13  0.00  0.00  0.87  0.01  0.00  0.00  0.01  0.00
  YS02001625YS02001629    1.00   0.13  0.01  0.00  0.32  0.00  0.54  0.00  0.00  0.00
  YS02001629YS02163301    1.00   0.13  0.00  0.00  0.86  0.00  0.00  0.00  0.00  0.00
  YS02001633YS02163601    1.00   0.00  0.01  0.00  0.99  0.00  0.00  0.00  0.13  0.00
  YS02001641YS02001644    1.00   0.00  0.01  0.00  0.99  0.00  0.00  0.00  0.00  0.00
  YS02001644YS02001647    1.00   0.00  0.14  0.00  0.86  0.00  0.00  0.00  0.00  0.00
  YS02001647YS02001649    1.00   0.00  0.14  0.00  0.64  0.22  0.00  0.00  0.51  0.00
  YS02001649YS02001757    1.00   0.00  0.00  0.00  0.78  0.22  0.00  0.00  0.30  0.00
  YS02001652YS02001649    1.00   0.00  0.00  0.00  0.99  0.01  0.00  0.00  0.62  0.00
  YS02001655YS02001652    1.00   0.00  0.00  0.00  0.35  0.00  0.00  0.65  0.02  0.00
  YS02001658YS02001655    1.00   0.00  0.13  0.00  0.82  0.05  0.00  0.00  0.54  0.00
  YS02001661YS02001658    1.00   0.13  0.00  0.00  0.67  0.20  0.00  0.00  0.57  0.00
  YS02001664YS02001661    1.00   0.13  0.00  0.00  0.85  0.03  0.00  0.00  0.64  0.00
  YS02001745YS02001748    1.00   0.00  0.00  0.00  0.30  0.00  0.00  0.70  0.03  0.00
  YS02001748YS02001751    1.00   0.00  0.00  0.00  0.96  0.04  0.00  0.00  0.65  0.00
  YS02001751YS02001754    1.00   0.00  0.00  0.00  0.35  0.00  0.00  0.65  0.02  0.00
  YS02001754YS02001757    1.00   0.00  0.00  0.00  0.99  0.01  0.00  0.00  0.64  0.00
  YS02001757CaochengTiaoxuchi    1.00   0.00  0.00  0.00  0.98  0.02  0.00  0.00  0.61  0.00
  YS02001759YS02001757    1.00   0.00  0.00  0.00  0.99  0.01  0.00  0.00  0.55  0.00
  YS02001762YS02001759    1.00   0.00  0.00  0.00  1.00  0.00  0.00  0.00  0.01  0.00
  YS02001765YS02001762    1.00   0.00  0.00  0.00  1.00  0.00  0.00  0.00  0.60  0.00
  YS02001767YS02001765    1.00   0.00  0.00  0.00  1.00  0.00  0.00  0.00  0.00  0.00
  YS02001770YS02001767    1.00   0.00  0.00  0.00  1.00  0.00  0.00  0.00  0.00  0.00
  YS02001774YS02001770    1.00   0.00  0.13  0.00  0.74  0.00  0.13  0.00  0.00  0.00
  YS02001779YS02001774    1.00   0.00  0.00  0.00  1.00  0.00  0.00  0.00  0.63  0.00
  YS02001783YS02001784    1.00   0.00  0.14  0.00  0.86  0.00  0.00  0.00  0.51  0.00
  YS02001784YS02001785    1.00   0.00  0.00  0.00  1.00  0.00  0.00  0.00  0.13  0.00
  YS02001786YS02001788    1.00   0.00  0.00  0.00  0.88  0.12  0.00  0.00  0.00  0.00
  YS02001788YS02001790    1.00   0.00  0.00  0.00  0.25  0.75  0.00  0.00  0.72  0.00
  YS02001790YS02001791    1.00   0.00  0.00  0.00  0.01  0.99  0.00  0.00  0.09  0.00
  YS02001791YS02001793    1.00   0.00  0.00  0.00  0.00  1.00  0.00  0.00  0.05  0.00
  YS02001793JiankangQianchi    1.00   0.00  0.00  0.00  0.50  0.49  0.00  0.00  0.34  0.00
  YS02001882YS02001884    1.00   0.13  0.00  0.00  0.87  0.00  0.00  0.00  0.00  0.00
  YS02001884YS02001887    1.00   0.06  0.05  0.00  0.89  0.00  0.00  0.00  0.00  0.00
  YS02001887YS02001890    1.00   0.00  0.00  0.00  0.97  0.00  0.03  0.00  0.00  0.00
  YS02001890YS02001895    1.00   0.00  0.13  0.00  0.87  0.00  0.00  0.00  0.00  0.00
  YS02001895YS02001898    1.00   0.14  0.00  0.00  0.86  0.00  0.01  0.00  0.00  0.00
  YS02001898YS02001901    1.00   0.14  0.00  0.00  0.86  0.00  0.00  0.00  0.00  0.00
  YS02001901YS02001904    1.00   0.14  0.00  0.00  0.86  0.00  0.00  0.00  0.00  0.00
  YS02001904YS02001907    1.00   0.00  0.13  0.00  0.86  0.00  0.00  0.00  0.00  0.00
  YS02001907YS02006553    1.00   0.00  0.02  0.00  0.98  0.00  0.00  0.00  0.00  0.00
  YS02001910YS02001907    1.00   0.00  0.00  0.00  0.97  0.00  0.00  0.03  0.10  0.00
  YS02001915YS02001910    1.00   0.00  0.00  0.00  0.98  0.02  0.00  0.00  0.11  0.00
  YS02001918YS02001915    1.00   0.00  0.01  0.00  0.98  0.02  0.00  0.00  0.61  0.00
  YS02001920YS02001918    1.00   0.00  0.01  0.00  0.99  0.00  0.00  0.00  0.00  0.00
  YS02001923YS02001920    1.00   0.00  0.00  0.00  1.00  0.00  0.00  0.00  0.76  0.00
  YS02001926YS02001923    1.00   0.00  0.07  0.00  0.23  0.00  0.69  0.00  0.00  0.00
  YS02001929YS02001926    1.00   0.00  0.13  0.00  0.87  0.00  0.00  0.00  0.64  0.00
  YS02006553YS02006556    1.00   0.01  0.00  0.00  0.99  0.00  0.00  0.00  0.03  0.00
  YS02006556YS02006558    1.00   0.00  0.00  0.00  1.00  0.00  0.00  0.00  0.00  0.00
  YS02006558YS02006561    1.00   0.14  0.00  0.00  0.23  0.63  0.00  0.00  0.13  0.00
  YS02006561YS02001783    1.00   0.14  0.00  0.00  0.25  0.61  0.00  0.00  0.59  0.00
  YS02163301YS02001633    1.00   0.00  0.13  0.00  0.87  0.00  0.00  0.00  0.00  0.00
  YS02163601YS02164001    1.00   0.00  0.08  0.00  0.92  0.00  0.00  0.00  0.00  0.00
  YS02164001YS02001641    1.00   0.01  0.07  0.00  0.92  0.00  0.00  0.00  0.05  0.00
  
  
  *************************
  Conduit Surcharge Summary
  *************************
  
  ----------------------------------------------------------------------------
                                                           Hours        Hours 
                         --------- Hours Full --------   Above Full   Capacity
  Conduit                Both Ends  Upstream  Dnstream   Normal Flow   Limited
  ----------------------------------------------------------------------------
  WS02003072WS02003073        0.01      0.01      0.01      1.52         0.01
  WS02004404WS02004405        0.01      0.01      0.01      3.40         0.01
  WS02004405WS02004406        0.01      0.01      0.01      0.54         0.01
  WS02006109WS02006110        0.42      0.42      2.84      0.60         0.01
  WS02006110WS02006113        0.01      0.01      2.84      0.01         0.01
  WS02006111WS02006112        0.01      0.01      2.95      0.01         0.01
  WS02006112WS02006115        0.01      0.01      0.81      0.01         0.01
  WS02006228WS02006109        2.83      2.84      2.83      3.06         2.82
  WS02006229WS02006228        2.82      2.83      2.82      2.94         2.80
  WS02006230WS02006229        2.86      2.91      2.86      3.76         2.86
  WS02006231WS02006230        0.38      0.38      1.02      3.61         0.01
  WS02006232WS02006231        0.84      0.84      2.84      1.02         0.01
  WS02006234WS02006232        2.51      2.51      2.84      0.96         0.86
  WS02006235WS02006234        1.19      1.22      2.57      3.53         0.12
  WS02006238WS02006235        2.62      2.62      2.83      0.01         0.04
  WS02006239WS02006238        2.75      2.83      2.75      2.92         2.40
  WS02006240WS02006239        2.72      2.82      2.72      2.93         2.33
  WS02006242WS02006240        2.81      2.81      2.87      3.01         0.01
  WS02006243WS02006242        2.82      2.82      2.85      0.01         0.24
  WS02006245WS02006243        2.81      2.81      2.81      2.57         2.16
  WS02006247WS02006245        2.81      2.81      2.81      3.53         2.72
  WS02006248WS02006247        2.81      2.81      2.81      0.01         0.28
  WS02006249WS02006248        2.81      2.81      2.81      3.51         0.01
  WS02006251WS02006249        2.80      2.80      2.81      2.94         2.34
  WS02006252WS02006251        2.85      2.89      2.86      2.96         0.01
  WS02006256WS02006235        3.43      3.58      4.15      1.03         0.02
  YS02001580YS02001583        1.98      1.98      2.00      0.01         0.01
  YS02001583YS02001586        1.98      1.98      2.06      0.01         0.01
  YS02001586YS02001590        2.07      2.07      2.12      0.01         0.01
  YS02001590YS02001593        2.12      2.12      2.13      2.15         0.01
  YS02001593YS02001596        2.12      2.12      2.19      0.01         0.01
  YS02001596YS02001600        2.22      2.22      2.28      0.01         0.01
  YS02001600YS02001601        2.32      2.32      2.49      0.01         0.01
  YS02001601YS02001602        2.44      2.44      2.51      2.23         0.01
  YS02001602YS02001605        2.42      2.42      2.44      2.98         0.01
  YS02001605YS02001607        2.40      2.42      2.42      2.35         2.29
  YS02001607YS02001610        2.14      2.14      2.15      0.01         0.01
  YS02001610YS02001613        2.14      2.14      2.15      0.01         0.01
  YS02001613YS02001616        2.11      2.11      2.14      0.01         0.01
  YS02001616YS02001619        2.10      2.10      2.11      1.13         0.54
  YS02001619YS02001622        2.10      2.10      2.10      2.03         1.94
  YS02001622YS02001625        2.10      2.10      2.25      0.01         0.01
  YS02001625YS02001629        2.07      2.07      2.25      0.01         0.01
  YS02001629YS02163301        2.27      2.27      2.28      0.81         0.03
  YS02001633YS02163601        2.31      2.31      2.35      0.06         0.10
  YS02001641YS02001644        2.31      2.31      2.31      2.55         2.17
  YS02001644YS02001647        2.15      2.15      2.31      0.04         0.01
  YS02001647YS02001649        2.15      2.15      2.29      0.01         0.01
  YS02001649YS02001757        2.28      2.29      2.36      0.09         0.05
  YS02001652YS02001649        2.14      2.14      2.29      0.54         0.54
  YS02001655YS02001652        1.98      1.98      2.11      0.53         0.53
  YS02001658YS02001655        1.78      1.78      1.98      0.48         0.48
  YS02001661YS02001658        1.11      1.11      1.78      0.44         0.44
  YS02001664YS02001661        0.73      0.73      1.41      0.01         0.01
  YS02001745YS02001748        0.76      0.76      1.74      0.25         0.25
  YS02001748YS02001751        1.79      1.79      1.94      0.34         0.34
  YS02001751YS02001754        1.94      1.94      2.08      0.32         0.32
  YS02001754YS02001757        2.11      2.11      2.36      0.01         0.01
  YS02001757CaochengTiaoxuchi        2.29      2.36      2.79      0.80         0.70
  YS02001759YS02001757        2.28      2.28      2.36      0.32         0.27
  YS02001762YS02001759        2.26      2.26      2.28      0.01         0.02
  YS02001765YS02001762        2.23      2.23      2.26      0.01         0.01
  YS02001767YS02001765        2.19      2.19      2.23      0.01         0.03
  YS02001770YS02001767        2.19      2.19      2.19      1.68         0.83
  YS02001774YS02001770        2.18      2.18      2.25      0.01         0.01
  YS02001779YS02001774        2.06      2.06      2.25      0.01         0.01
  YS02001783YS02001784        1.88      1.89      1.88      1.97         1.88
  YS02001784YS02001785        1.81      1.88      1.81      2.04         1.81
  YS02001786YS02001788        0.01      1.81      0.01      2.01         0.01
  YS02001790YS02001791        0.01      0.01      0.01      1.87         0.01
  YS02001793JiankangQianchi        0.01      0.01      3.74      0.01         0.01
  YS02001882YS02001884        1.86      1.86      1.87      0.01         0.01
  YS02001884YS02001887        1.88      1.88      1.89      0.01         0.01
  YS02001887YS02001890        1.90      1.90      1.91      1.19         0.01
  YS02001890YS02001895        1.86      1.86      1.92      0.01         0.01
  YS02001895YS02001898        1.85      1.85      1.86      0.01         0.01
  YS02001898YS02001901        1.86      1.86      1.89      0.01         0.01
  YS02001901YS02001904        1.88      1.88      1.89      0.01         0.01
  YS02001904YS02001907        1.88      1.88      2.01      0.01         0.01
  YS02001907YS02006553        2.05      2.05      2.08      0.63         0.63
  YS02001910YS02001907        1.91      1.91      1.99      0.93         0.94
  YS02001915YS02001910        1.86      1.86      1.91      0.01         0.13
  YS02001918YS02001915        1.81      1.81      1.86      0.01         0.01
  YS02001920YS02001918        1.81      1.81      1.82      0.63         0.01
  YS02001923YS02001920        1.78      1.78      1.82      0.01         0.01
  YS02001926YS02001923        1.21      1.21      1.29      0.85         0.01
  YS02001929YS02001926        0.98      0.98      1.29      0.01         0.01
  YS02006553YS02006556        1.95      1.95      2.01      0.55         0.55
  YS02006556YS02006558        1.98      1.98      2.01      0.53         0.01
  YS02006558YS02006561        1.83      1.95      1.83      2.03         1.83
  YS02006561YS02001783        1.78      1.78      1.89      0.01         0.01
  YS02163301YS02001633        2.28      2.28      2.32      0.66         0.01
  YS02163601YS02164001        2.30      2.30      2.35      0.05         0.01
  YS02164001YS02001641        2.30      2.30      2.31      1.01         1.02
  
  
  ***************
  Pumping Summary
  ***************
  
  ---------------------------------------------------------------------------------------------------------
                                                  Min       Avg       Max     Total     Power    % Time Off
                        Percent   Number of      Flow      Flow      Flow    Volume     Usage    Pump Curve
  Pump                 Utilized   Start-Ups       LPS       LPS       LPS  10^6 ltr     Kw-hr    Low   High
  ---------------------------------------------------------------------------------------------------------
  CC-R1                   31.39         155      0.00    683.00    683.00     6.109    124.83    0.0   61.2
  CC-R2                   42.93           2      0.00    683.00    683.00     8.357    163.75    0.0   67.8
  CC-S1                   36.67         181      0.00    200.00    200.00     2.090      8.53    0.0   52.4
  CC-S2                   44.48           2      0.00    200.00    200.00     2.536     11.29    0.0   44.7
  JK-R1                   32.30         354      0.00    962.50   1000.00     8.061     94.51    0.0    0.0
  JK-R2                    0.34           2      0.00   1000.00   1000.00     0.096      1.24    0.0    0.0
  JK-S                    12.80          91      0.00    300.00    300.00     1.094     13.30    0.0    0.0
  

  Analysis begun on:  Tue Dec 24 10:16:20 2024
  Analysis ended on:  Tue Dec 24 10:16:23 2024
  Total elapsed time: 00:00:03