
  EPA STORM WATER MANAGEMENT MODEL - VERSION 5.2 (Build 5.2.4)
  PYSWMM TOOLKIT API - VERSION v1.0 (2023-11-27)
  ------------------------------------------------------------

  
  ****************
  Analysis Options
  ****************
  Flow Units ............... CMS
  Process Models:
    Rainfall/Runoff ........ YES
    RDII ................... NO
    Snowmelt ............... NO
    Groundwater ............ NO
    Flow Routing ........... YES
    Ponding Allowed ........ YES
    Water Quality .......... NO
  Infiltration Method ...... HORTON
  Flow Routing Method ...... DYNWAVE
  Surcharge Method ......... EXTRAN
  Starting Date ............ 01/01/2000 08:00:00
  Ending Date .............. 01/01/2000 16:00:00
  Antecedent Dry Days ...... 0.0
  Report Time Step ......... 00:05:00
  Wet Time Step ............ 00:05:00
  Dry Time Step ............ 00:05:00
  Routing Time Step ........ 30.00 sec
  Variable Time Step ....... YES
  Maximum Trials ........... 8
  Number of Threads ........ 1
  Head Tolerance ........... 0.001500 m
  
  
  **************************        Volume         Depth
  Runoff Quantity Continuity     hectare-m            mm
  **************************     ---------       -------
  Total Precipitation ......         4.288        23.796
  Evaporation Loss .........         0.000         0.000
  Infiltration Loss ........         0.000         0.000
  Surface Runoff ...........         4.328        24.020
  Final Storage ............         0.024         0.131
  Continuity Error (%) .....        -1.491
  
  
  **************************        Volume        Volume
  Flow Routing Continuity        hectare-m      10^6 ltr
  **************************     ---------     ---------
  Dry Weather Inflow .......         0.399         3.989
  Wet Weather Inflow .......         4.327        43.273
  Groundwater Inflow .......         0.000         0.000
  RDII Inflow ..............         0.000         0.000
  External Inflow ..........         0.000         0.000
  External Outflow .........         0.608         6.079
  Flooding Loss ............         3.059        30.591
  Evaporation Loss .........         0.000         0.000
  Exfiltration Loss ........         0.000         0.000
  Initial Stored Volume ....         0.000         0.000
  Final Stored Volume ......         0.812         8.115
  Continuity Error (%) .....         5.241
  
  
  *************************
  Highest Continuity Errors
  *************************
  Node T5 (15.11%)
  Node T2 (11.53%)
  Node T3 (11.41%)
  Node T4 (10.43%)
  Node T6 (9.85%)
  
  
  ***************************
  Time-Step Critical Elements
  ***************************
  Link C15 (52.89%)
  
  
  ********************************
  Highest Flow Instability Indexes
  ********************************
  Link C13 (9)
  Link C3 (6)
  Link C11 (5)
  Link C12 (5)
  Link C19 (5)
  
  
  *********************************
  Most Frequent Nonconverging Nodes
  *********************************
  Node Out_to_WWTP (5.08%)
  Node CSO7 (2.73%)
  Node J4 (2.34%)
  Node CSO9 (1.25%)
  Node CSO8 (0.70%)
  
  
  *************************
  Routing Time Step Summary
  *************************
  Minimum Time Step           :     0.45 sec
  Average Time Step           :    22.27 sec
  Maximum Time Step           :    30.00 sec
  % of Time in Steady State   :     0.00
  Average Iterations per Step :     3.17
  % of Steps Not Converging   :     5.08
  Time Step Frequencies       :
     30.000 - 13.228 sec      :    66.28 %
     13.228 -  5.833 sec      :    33.33 %
      5.833 -  2.572 sec      :     0.08 %
      2.572 -  1.134 sec      :     0.31 %
      1.134 -  0.500 sec      :     0.00 %
  
  
  ***************************
  Subcatchment Runoff Summary
  ***************************
  
  ------------------------------------------------------------------------------------------------------------------------------
                            Total      Total      Total      Total     Imperv       Perv      Total       Total     Peak  Runoff
                           Precip      Runon       Evap      Infil     Runoff     Runoff     Runoff      Runoff   Runoff   Coeff
  Subcatchment                 mm         mm         mm         mm         mm         mm         mm    10^6 ltr      CMS
  ------------------------------------------------------------------------------------------------------------------------------
  SC01                      12.63       0.00       0.00       0.00      12.71       0.00      12.71        4.20     2.65   1.007
  SC02                      32.12       0.00       0.00       0.00      32.55       0.00      32.55        7.41     3.85   1.014
  SC03                      36.95       0.00       0.00       0.00      37.85       0.00      37.85        6.81     3.35   1.024
  SC04                      32.12       0.00       0.00       0.00      32.22       0.00      32.22        2.22     0.77   1.003
  SC05                      12.63       0.00       0.00       0.00      12.70       0.00      12.70        1.98     1.20   1.005
  SC06                      18.28       0.00       0.00       0.00      18.15       0.00      18.15        5.91     2.32   0.993
  SC07                      32.12       0.00       0.00       0.00      32.22       0.00      32.22        1.53     0.53   1.003
  SC08                      36.95       0.00       0.00       0.00      37.42       0.00      37.42       10.48     3.51   1.013
  SC09                      18.28       0.00       0.00       0.00      18.30       0.00      18.30        1.26     0.67   1.001
  SC010                     12.63       0.00       0.00       0.00      12.65       0.00      12.65        1.49     0.80   1.002
  
  
  ******************
  Node Depth Summary
  ******************
  
  ---------------------------------------------------------------------------------
                                 Average  Maximum  Maximum  Time of Max    Reported
                                   Depth    Depth      HGL   Occurrence   Max Depth
  Node                 Type       Meters   Meters   Meters  days hr:min      Meters
  ---------------------------------------------------------------------------------
  J1                   JUNCTION     0.10     0.37    34.37     0  01:25        0.36
  J3                   JUNCTION     0.11     0.14    18.14     0  03:10        0.14
  CSO7                 JUNCTION     0.50     1.20    35.20     0  01:16        1.20
  J5                   JUNCTION     0.12     0.31    32.31     0  01:25        0.30
  CSO9                 JUNCTION     0.56     2.00    42.00     0  01:14        2.00
  J8                   JUNCTION     0.17     0.52    36.52     0  01:30        0.52
  CSO8                 JUNCTION     0.77     2.00    34.00     0  01:14        2.00
  J10                  JUNCTION     0.19     0.59    29.59     0  01:20        0.57
  J13                  JUNCTION     0.13     0.51    29.51     0  01:25        0.50
  J15                  JUNCTION     0.21     0.55    15.55     0  01:27        0.52
  J16                  JUNCTION     0.10     0.39    30.39     0  01:25        0.38
  CSO10                JUNCTION     0.27     1.00    31.00     0  01:16        1.00
  J12                  JUNCTION     0.80     1.24    27.24     0  02:36        1.19
  J4                   JUNCTION     0.30     0.90    33.90     0  01:20        0.74
  J6                   JUNCTION     0.06     0.07    25.07     0  04:00        0.07
  J2                   JUNCTION     0.07     0.08    25.08     0  02:24        0.08
  J19                  JUNCTION     0.15     0.17     8.17     0  01:33        0.17
  J9                   JUNCTION     0.09     0.11    29.11     0  02:00        0.11
  J14                  JUNCTION     0.11     0.15    20.15     0  05:43        0.15
  J17                  JUNCTION     0.06     0.08    20.08     0  02:45        0.08
  J7                   JUNCTION     0.12     0.23    39.23     0  01:47        0.23
  J11                  JUNCTION     0.16     0.30    31.30     0  03:17        0.30
  J18                  JUNCTION     0.08     0.16    29.16     0  01:41        0.16
  Out_to_WWTP          OUTFALL      0.15     0.17     6.17     0  03:52        0.17
  T5                   STORAGE      4.05     5.00    32.00     0  01:38        5.00
  T4                   STORAGE      4.12     5.00    32.00     0  01:40        5.00
  T6                   STORAGE      4.22     5.00    36.00     0  01:29        5.00
  T3                   STORAGE      4.07     5.00    27.00     0  02:12        5.00
  T2                   STORAGE      4.22     5.00    26.00     0  01:29        5.00
  T1                   STORAGE      3.87     5.00    15.00     0  01:31        5.00
  
  
  *******************
  Node Inflow Summary
  *******************
  
  -------------------------------------------------------------------------------------------------
                                  Maximum  Maximum                  Lateral       Total        Flow
                                  Lateral    Total  Time of Max      Inflow      Inflow     Balance
                                   Inflow   Inflow   Occurrence      Volume      Volume       Error
  Node                 Type           CMS      CMS  days hr:min    10^6 ltr    10^6 ltr     Percent
  -------------------------------------------------------------------------------------------------
  J1                   JUNCTION     1.220    1.220     0  01:25        2.55        2.55       0.019
  J3                   JUNCTION     0.000    0.192     0  03:58           0        3.58       0.886
  CSO7                 JUNCTION     0.539    0.539     0  01:25        1.82        1.82       0.022
  J5                   JUNCTION     0.771    0.844     0  01:25        2.35        3.21       0.044
  CSO9                 JUNCTION     0.675    0.675     0  01:25        1.46        1.46       0.025
  J8                   JUNCTION     2.352    2.479     0  01:30        6.86         7.8       0.048
  CSO8                 JUNCTION     3.523    3.523     0  01:20        10.8        10.8      -0.008
  J10                  JUNCTION     3.359    3.831     0  01:20         7.2        11.2      -0.043
  J13                  JUNCTION     3.866    3.866     0  01:25        7.88        7.88      -0.107
  J15                  JUNCTION     0.000    2.900     0  01:25           0        10.1       0.742
  J16                  JUNCTION     2.671    2.671     0  01:25        4.75        4.75      -0.067
  CSO10                JUNCTION     0.804    0.804     0  01:25        1.63        1.63       0.002
  J12                  JUNCTION     0.000    3.730     0  01:21           0        12.6       6.159
  J4                   JUNCTION     0.000    0.085     0  01:18           0        0.86       0.343
  J6                   JUNCTION     0.000    0.028     0  01:55           0       0.538       0.732
  J2                   JUNCTION     0.000    0.039     0  01:38           0       0.928       0.541
  J19                  JUNCTION     0.000    0.271     0  01:32           0        6.09       0.179
  J9                   JUNCTION     0.000    0.075     0  01:29           0        1.38       1.256
  J14                  JUNCTION     0.000    0.124     0  03:00           0        2.13       0.228
  J17                  JUNCTION     0.000    0.033     0  02:10           0       0.587       0.740
  J7                   JUNCTION     0.000    0.127     0  01:47           0       0.952       0.342
  J11                  JUNCTION     0.000    0.487     0  03:16           0        3.99       0.233
  J18                  JUNCTION     0.000    0.202     0  01:41           0        1.19       0.032
  Out_to_WWTP          OUTFALL      0.000    0.271     0  01:33           0        6.08       0.000
  T5                   STORAGE      0.000    1.201     0  01:25           0        2.55      17.800
  T4                   STORAGE      0.000    0.836     0  01:25           0        3.21      11.641
  T6                   STORAGE      0.000    2.479     0  01:30           0         7.8      10.928
  T3                   STORAGE      0.000    3.805     0  02:39           0        11.9      12.875
  T2                   STORAGE      0.000    3.818     0  01:25           0        7.89      13.034
  T1                   STORAGE      0.000    2.570     0  01:27           0          10       5.592
  
  
  **********************
  Node Surcharge Summary
  **********************
  
  Surcharging occurs when water rises above the top of the highest conduit.
  ---------------------------------------------------------------------
                                               Max. Height   Min. Depth
                                   Hours       Above Crown    Below Rim
  Node                 Type      Surcharged         Meters       Meters
  ---------------------------------------------------------------------
  CSO7                 JUNCTION        1.85          0.945        0.000
  CSO9                 JUNCTION        1.32          1.682        0.000
  CSO8                 JUNCTION        1.73          1.547        0.000
  CSO10                JUNCTION        0.76          0.560        0.000
  J4                   JUNCTION        1.79          0.600        1.100
  
  
  *********************
  Node Flooding Summary
  *********************
  
  Flooding refers to all water that overflows a node, whether it ponds or not.
  --------------------------------------------------------------------------
                                                             Total   Maximum
                                 Maximum   Time of Max       Flood    Ponded
                        Hours       Rate    Occurrence      Volume     Depth
  Node                 Flooded       CMS   days hr:min    10^6 ltr    Meters
  --------------------------------------------------------------------------
  CSO7                    1.65     0.464      0  01:25       0.963     0.000
  CSO9                    0.89     0.547      0  01:25       0.508     0.000
  CSO8                    1.51     3.014      0  01:20       6.784     0.000
  CSO10                   0.65     0.597      0  01:25       0.433     0.000
  T5                      2.19     0.450      0  02:45       0.837     0.000
  T4                      3.47     0.728      0  02:45       1.866     0.000
  T6                      3.93     2.404      0  01:29       5.090     0.000
  T3                      2.31     3.743      0  02:39       5.760     0.000
  T2                      3.20     3.089      0  02:45       5.422     0.000
  T1                      2.19     1.841      0  01:31       2.920     0.000
  
  
  **********************
  Storage Volume Summary
  **********************
  
  ------------------------------------------------------------------------------------------------
                         Average    Avg   Evap  Exfil     Maximum    Max    Time of Max    Maximum
                          Volume   Pcnt   Pcnt   Pcnt      Volume   Pcnt     Occurrence    Outflow
  Storage Unit           1000 m³   Full   Loss   Loss     1000 m³   Full    days hr:min        CMS
  ------------------------------------------------------------------------------------------------
  T5                       0.405   81.0    0.0    0.0       0.500  100.0       0  01:38      0.039
  T4                       0.412   82.5    0.0    0.0       0.500  100.0       0  01:40      0.028
  T6                       0.506   84.3    0.0    0.0       0.600  100.0       0  01:29      0.075
  T3                       2.114   81.3    0.0    0.0       2.600  100.0       0  02:12      0.433
  T2                       0.843   84.3    0.0    0.0       1.000  100.0       0  01:29      0.033
  T1                       0.541   77.3    0.0    0.0       0.700  100.0       0  01:31      0.271
  
  
  ***********************
  Outfall Loading Summary
  ***********************
  
  -----------------------------------------------------------
                         Flow       Avg       Max       Total
                         Freq      Flow      Flow      Volume
  Outfall Node           Pcnt       CMS       CMS    10^6 ltr
  -----------------------------------------------------------
  Out_to_WWTP           99.14     0.224     0.271       6.079
  -----------------------------------------------------------
  System                99.14     0.224     0.271       6.079
  
  
  ********************
  Link Flow Summary
  ********************
  
  -----------------------------------------------------------------------------
                                 Maximum  Time of Max   Maximum    Max/    Max/
                                  |Flow|   Occurrence   |Veloc|    Full    Full
  Link                 Type          CMS  days hr:min     m/sec    Flow   Depth
  -----------------------------------------------------------------------------
  C1                   CONDUIT     0.039     0  02:24      1.07    0.01    0.11
  C6                   CONDUIT     0.076     0  01:23      1.29    1.21    1.00
  C2                   CONDUIT     0.028     0  04:00      1.00    0.03    0.18
  C9                   CONDUIT     0.127     0  01:47      1.26    0.43    0.73
  C16                  CONDUIT     0.486     0  03:09      1.87    0.05    0.22
  C3                   CONDUIT     0.125     0  05:23      1.89    0.05    0.14
  C19                  CONDUIT     0.033     0  02:45      0.69    0.01    0.30
  C11                  CONDUIT     0.190     0  03:10      1.82    0.01    0.16
  C20                  CONDUIT     2.622     0  01:25      4.94    0.08    0.23
  C22                  CONDUIT     0.202     0  01:41      1.71    0.09    0.44
  C12                  CONDUIT     0.075     0  02:00      0.61    0.01    0.34
  C17                  CONDUIT     3.716     0  01:21      4.85    0.18    0.44
  C10                  CONDUIT     2.479     0  01:30      1.96    0.26    0.67
  C13                  CONDUIT     3.805     0  02:39      3.61    0.22    0.81
  C18                  CONDUIT     3.818     0  01:25      3.36    0.14    0.63
  C23                  CONDUIT     2.570     0  01:27      2.14    0.28    0.68
  C4                   CONDUIT     1.201     0  01:25      3.06    0.29    0.69
  C7                   CONDUIT     0.836     0  01:25      1.54    0.21    0.65
  C14                  CONDUIT     0.271     0  01:33      2.08    0.02    0.09
  C5                   CONDUIT     0.085     0  01:18      1.68    1.45    1.00
  C8                   CONDUIT     0.127     0  01:47      1.91    1.60    0.86
  C15                  CONDUIT     0.487     0  03:16      3.69    1.55    0.83
  C21                  CONDUIT     0.202     0  01:41      1.87    1.16    0.69
  V4                   ORIFICE     0.028     0  01:55                      0.35
  V5                   ORIFICE     0.039     0  01:38                      1.00
  V1                   ORIFICE     0.271     0  01:32                      1.00
  V6                   ORIFICE     0.075     0  01:29                      0.43
  V3                   ORIFICE     0.124     0  03:00                      0.65
  V2                   ORIFICE     0.033     0  02:10                      0.24
  
  
  ***************************
  Flow Classification Summary
  ***************************
  
  -------------------------------------------------------------------------------------
                      Adjusted    ---------- Fraction of Time in Flow Class ---------- 
                       /Actual         Up    Down  Sub   Sup   Up    Down  Norm  Inlet 
  Conduit               Length    Dry  Dry   Dry   Crit  Crit  Crit  Crit  Ltd   Ctrl  
  -------------------------------------------------------------------------------------
  C1                      1.00   0.00  0.00  0.00  0.05  0.95  0.00  0.00  0.94  0.00
  C6                      1.00   0.00  0.00  0.00  0.27  0.73  0.00  0.00  0.00  0.00
  C2                      1.00   0.00  0.00  0.00  0.46  0.54  0.00  0.00  1.00  0.00
  C9                      1.00   0.00  0.00  0.00  1.00  0.00  0.00  0.00  1.00  0.00
  C16                     1.00   0.00  0.00  0.00  0.59  0.41  0.00  0.00  0.43  0.00
  C3                      1.00   0.00  0.01  0.00  0.05  0.95  0.00  0.00  0.53  0.00
  C19                     1.00   0.00  0.00  0.00  1.00  0.00  0.00  0.00  1.00  0.00
  C11                     1.00   0.00  0.00  0.00  0.26  0.74  0.00  0.00  1.00  0.00
  C20                     1.00   0.00  0.00  0.00  0.56  0.44  0.00  0.00  0.97  0.00
  C22                     1.00   0.00  0.00  0.00  0.85  0.15  0.00  0.00  1.00  0.00
  C12                     1.00   0.00  0.00  0.00  1.00  0.00  0.00  0.00  1.00  0.00
  C17                     1.00   0.00  0.00  0.00  0.76  0.24  0.00  0.00  0.95  0.00
  C10                     1.00   0.00  0.00  0.00  0.96  0.04  0.00  0.00  0.98  0.00
  C13                     1.00   0.00  0.00  0.00  0.85  0.15  0.00  0.00  0.11  0.00
  C18                     1.00   0.00  0.00  0.00  0.93  0.07  0.00  0.00  0.97  0.00
  C23                     1.00   0.00  0.00  0.00  0.86  0.14  0.00  0.00  0.95  0.00
  C4                      1.00   0.00  0.00  0.00  0.96  0.04  0.00  0.00  0.98  0.00
  C7                      1.00   0.00  0.00  0.00  0.95  0.05  0.00  0.00  0.97  0.00
  C14                     1.00   0.00  0.01  0.00  0.01  0.98  0.00  0.00  0.23  0.00
  C5                      1.00   0.00  0.00  0.00  0.95  0.05  0.00  0.00  0.73  0.00
  C8                      1.00   0.00  0.00  0.00  0.17  0.83  0.00  0.00  0.00  0.00
  C15                     1.00   0.00  0.00  0.00  0.00  1.00  0.00  0.00  0.00  0.00
  C21                     1.00   0.00  0.00  0.00  0.01  0.99  0.00  0.00  0.00  0.00
  
  
  *************************
  Conduit Surcharge Summary
  *************************
  
  ----------------------------------------------------------------------------
                                                           Hours        Hours 
                         --------- Hours Full --------   Above Full   Capacity
  Conduit                Both Ends  Upstream  Dnstream   Normal Flow   Limited
  ----------------------------------------------------------------------------
  C6                          0.04      1.77      0.04      1.64         0.04
  C9                          0.01      0.01      0.11      0.01         0.01
  C10                         0.01      0.01      6.55      0.01         0.01
  C13                         0.01      0.01      6.46      0.01         0.01
  C18                         0.01      0.01      6.52      0.01         0.01
  C23                         0.01      0.01      6.52      0.01         0.01
  C4                          0.01      0.01      6.57      0.01         0.01
  C7                          0.01      0.01      6.52      0.01         0.01
  C5                          1.78      1.84      1.98      1.84         1.74
  C8                          0.01      1.32      0.01      1.35         0.01
  C15                         0.01      1.73      0.01      1.77         0.01
  C21                         0.01      0.76      0.01      0.73         0.01
  

  Analysis begun on:  Sun Oct 20 17:02:35 2024
  Analysis ended on:  Sun Oct 20 17:02:35 2024
  Total elapsed time: < 1 sec