
  EPA STORM WATER MANAGEMENT MODEL - VERSION 5.2 (Build 5.2.4)
  PYSWMM TOOLKIT API - VERSION v1.0 (2023-11-27)
  ------------------------------------------------------------

  
  ****************
  Analysis Options
  ****************
  Flow Units ............... CMS
  Process Models:
    Rainfall/Runoff ........ YES
    RDII ................... NO
    Snowmelt ............... NO
    Groundwater ............ NO
    Flow Routing ........... YES
    Ponding Allowed ........ YES
    Water Quality .......... NO
  Infiltration Method ...... HORTON
  Flow Routing Method ...... DYNWAVE
  Surcharge Method ......... EXTRAN
  Starting Date ............ 01/01/2000 08:00:00
  Ending Date .............. 01/01/2000 16:00:00
  Antecedent Dry Days ...... 0.0
  Report Time Step ......... 00:05:00
  Wet Time Step ............ 00:05:00
  Dry Time Step ............ 00:05:00
  Routing Time Step ........ 30.00 sec
  Variable Time Step ....... YES
  Maximum Trials ........... 8
  Number of Threads ........ 1
  Head Tolerance ........... 0.001500 m
  
  
  **************************        Volume         Depth
  Runoff Quantity Continuity     hectare-m            mm
  **************************     ---------       -------
  Total Precipitation ......         3.802        21.100
  Evaporation Loss .........         0.000         0.000
  Infiltration Loss ........         0.000         0.000
  Surface Runoff ...........         3.835        21.282
  Final Storage ............         0.024         0.132
  Continuity Error (%) .....        -1.488
  
  
  **************************        Volume        Volume
  Flow Routing Continuity        hectare-m      10^6 ltr
  **************************     ---------     ---------
  Dry Weather Inflow .......         0.399         3.989
  Wet Weather Inflow .......         3.835        38.346
  Groundwater Inflow .......         0.000         0.000
  RDII Inflow ..............         0.000         0.000
  External Inflow ..........         0.000         0.000
  External Outflow .........         0.602         6.024
  Flooding Loss ............         2.579        25.794
  Evaporation Loss .........         0.000         0.000
  Exfiltration Loss ........         0.000         0.000
  Initial Stored Volume ....         0.000         0.000
  Final Stored Volume ......         0.805         8.051
  Continuity Error (%) .....         5.824
  
  
  *************************
  Highest Continuity Errors
  *************************
  Node T5 (15.34%)
  Node T3 (13.90%)
  Node T2 (11.74%)
  Node T4 (10.63%)
  Node T6 (10.29%)
  
  
  ***************************
  Time-Step Critical Elements
  ***************************
  Link C15 (48.22%)
  
  
  ********************************
  Highest Flow Instability Indexes
  ********************************
  Link C13 (10)
  Link C3 (6)
  Link C11 (5)
  Link C12 (5)
  Link C23 (5)
  
  
  *********************************
  Most Frequent Nonconverging Nodes
  *********************************
  Node Out_to_WWTP (4.94%)
  Node CSO7 (2.51%)
  Node J4 (2.19%)
  Node CSO9 (1.22%)
  Node CSO8 (0.73%)
  
  
  *************************
  Routing Time Step Summary
  *************************
  Minimum Time Step           :     0.39 sec
  Average Time Step           :    23.10 sec
  Maximum Time Step           :    30.00 sec
  % of Time in Steady State   :     0.00
  Average Iterations per Step :     3.09
  % of Steps Not Converging   :     4.94
  Time Step Frequencies       :
     30.000 - 13.228 sec      :    71.97 %
     13.228 -  5.833 sec      :    27.46 %
      5.833 -  2.572 sec      :     0.24 %
      2.572 -  1.134 sec      :     0.24 %
      1.134 -  0.500 sec      :     0.08 %
  
  
  ***************************
  Subcatchment Runoff Summary
  ***************************
  
  ------------------------------------------------------------------------------------------------------------------------------
                            Total      Total      Total      Total     Imperv       Perv      Total       Total     Peak  Runoff
                           Precip      Runon       Evap      Infil     Runoff     Runoff     Runoff      Runoff   Runoff   Coeff
  Subcatchment                 mm         mm         mm         mm         mm         mm         mm    10^6 ltr      CMS
  ------------------------------------------------------------------------------------------------------------------------------
  SC01                      12.53       0.00       0.00       0.00      12.61       0.00      12.61        4.16     2.65   1.007
  SC02                      29.95       0.00       0.00       0.00      30.37       0.00      30.37        6.91     3.85   1.014
  SC03                      28.47       0.00       0.00       0.00      29.15       0.00      29.15        5.25     3.35   1.024
  SC04                      29.95       0.00       0.00       0.00      30.04       0.00      30.04        2.07     0.77   1.003
  SC05                      12.53       0.00       0.00       0.00      12.60       0.00      12.60        1.96     1.20   1.005
  SC06                      17.90       0.00       0.00       0.00      17.76       0.00      17.76        5.78     2.32   0.992
  SC07                      29.95       0.00       0.00       0.00      30.05       0.00      30.05        1.43     0.53   1.003
  SC08                      28.47       0.00       0.00       0.00      28.83       0.00      28.83        8.07     3.51   1.013
  SC09                      17.90       0.00       0.00       0.00      17.92       0.00      17.92        1.24     0.67   1.001
  SC010                     12.53       0.00       0.00       0.00      12.55       0.00      12.55        1.47     0.80   1.002
  
  
  ******************
  Node Depth Summary
  ******************
  
  ---------------------------------------------------------------------------------
                                 Average  Maximum  Maximum  Time of Max    Reported
                                   Depth    Depth      HGL   Occurrence   Max Depth
  Node                 Type       Meters   Meters   Meters  days hr:min      Meters
  ---------------------------------------------------------------------------------
  J1                   JUNCTION     0.10     0.37    34.37     0  01:35        0.36
  J3                   JUNCTION     0.11     0.14    18.14     0  03:25        0.14
  CSO7                 JUNCTION     0.47     1.20    35.20     0  01:26        1.20
  J5                   JUNCTION     0.11     0.31    32.31     0  01:35        0.30
  CSO9                 JUNCTION     0.55     2.00    42.00     0  01:24        2.00
  J8                   JUNCTION     0.17     0.52    36.52     0  01:40        0.52
  CSO8                 JUNCTION     0.67     2.00    34.00     0  01:24        2.00
  J10                  JUNCTION     0.17     0.59    29.59     0  01:30        0.57
  J13                  JUNCTION     0.12     0.51    29.51     0  01:35        0.50
  J15                  JUNCTION     0.21     0.55    15.55     0  01:37        0.52
  J16                  JUNCTION     0.10     0.39    30.39     0  01:35        0.38
  CSO10                JUNCTION     0.27     1.00    31.00     0  01:26        1.00
  J12                  JUNCTION     0.76     1.24    27.24     0  02:46        1.20
  J4                   JUNCTION     0.28     0.90    33.90     0  01:30        0.78
  J6                   JUNCTION     0.06     0.07    25.07     0  03:25        0.07
  J2                   JUNCTION     0.07     0.08    25.08     0  03:40        0.08
  J19                  JUNCTION     0.15     0.17     8.17     0  01:43        0.17
  J9                   JUNCTION     0.08     0.11    29.11     0  02:10        0.11
  J14                  JUNCTION     0.11     0.15    20.15     0  03:47        0.15
  J17                  JUNCTION     0.06     0.08    20.08     0  04:35        0.08
  J7                   JUNCTION     0.12     0.23    39.23     0  01:57        0.23
  J11                  JUNCTION     0.15     0.30    31.30     0  03:08        0.30
  J18                  JUNCTION     0.08     0.16    29.16     0  01:51        0.16
  Out_to_WWTP          OUTFALL      0.15     0.17     6.17     0  04:11        0.17
  T5                   STORAGE      3.95     5.00    32.00     0  01:47        5.00
  T4                   STORAGE      4.00     5.00    32.00     0  01:50        5.00
  T6                   STORAGE      4.15     5.00    36.00     0  01:39        5.00
  T3                   STORAGE      3.94     5.00    27.00     0  02:22        5.00
  T2                   STORAGE      4.11     5.00    26.00     0  01:39        5.00
  T1                   STORAGE      3.82     5.00    15.00     0  01:41        5.00
  
  
  *******************
  Node Inflow Summary
  *******************
  
  -------------------------------------------------------------------------------------------------
                                  Maximum  Maximum                  Lateral       Total        Flow
                                  Lateral    Total  Time of Max      Inflow      Inflow     Balance
                                   Inflow   Inflow   Occurrence      Volume      Volume       Error
  Node                 Type           CMS      CMS  days hr:min    10^6 ltr    10^6 ltr     Percent
  -------------------------------------------------------------------------------------------------
  J1                   JUNCTION     1.220    1.220     0  01:35        2.53        2.53       0.027
  J3                   JUNCTION     0.000    0.192     0  04:03           0        3.66       0.818
  CSO7                 JUNCTION     0.539    0.539     0  01:35        1.72        1.72       0.015
  J5                   JUNCTION     0.771    0.844     0  01:35         2.2        3.03       0.053
  CSO9                 JUNCTION     0.675    0.675     0  01:35        1.43        1.43       0.031
  J8                   JUNCTION     2.352    2.479     0  01:40        6.73        7.66       0.062
  CSO8                 JUNCTION     3.523    3.523     0  01:30        8.37        8.37      -0.010
  J10                  JUNCTION     3.359    3.831     0  01:30        5.63        9.09      -0.065
  J13                  JUNCTION     3.866    3.866     0  01:35        7.38        7.38      -0.108
  J15                  JUNCTION     0.000    2.881     0  01:35           0        10.1       0.730
  J16                  JUNCTION     2.671    2.671     0  01:35        4.72        4.72      -0.063
  CSO10                JUNCTION     0.804    0.804     0  01:35        1.61        1.61       0.005
  J12                  JUNCTION     0.000    3.729     0  01:31           0        10.4       7.000
  J4                   JUNCTION     0.000    0.085     0  01:28           0       0.832       0.372
  J6                   JUNCTION     0.000    0.028     0  01:50           0       0.545       0.750
  J2                   JUNCTION     0.000    0.039     0  01:48           0       0.912       0.551
  J19                  JUNCTION     0.000    0.271     0  01:42           0        6.04       0.183
  J9                   JUNCTION     0.000    0.075     0  01:50           0         1.2       1.680
  J14                  JUNCTION     0.000    0.124     0  02:31           0        2.22       0.222
  J17                  JUNCTION     0.000    0.033     0  02:15           0       0.583       1.112
  J7                   JUNCTION     0.000    0.127     0  01:57           0        0.93       0.348
  J11                  JUNCTION     0.000    0.487     0  03:08           0        3.47       0.265
  J18                  JUNCTION     0.000    0.202     0  01:51           0        1.18       0.035
  Out_to_WWTP          OUTFALL      0.000    0.271     0  01:43           0        6.02       0.000
  T5                   STORAGE      0.000    1.201     0  01:35           0        2.53      18.117
  T4                   STORAGE      0.000    0.836     0  01:35           0        3.03      11.900
  T6                   STORAGE      0.000    2.479     0  01:40           0        7.65      11.469
  T3                   STORAGE      0.000    3.802     0  02:49           0        9.68      16.151
  T2                   STORAGE      0.000    3.818     0  01:35           0        7.39      13.308
  T1                   STORAGE      0.000    2.558     0  01:37           0          10       5.845
  
  
  **********************
  Node Surcharge Summary
  **********************
  
  Surcharging occurs when water rises above the top of the highest conduit.
  ---------------------------------------------------------------------
                                               Max. Height   Min. Depth
                                   Hours       Above Crown    Below Rim
  Node                 Type      Surcharged         Meters       Meters
  ---------------------------------------------------------------------
  CSO7                 JUNCTION        1.73          0.945        0.000
  CSO9                 JUNCTION        1.27          1.682        0.000
  CSO8                 JUNCTION        1.43          1.547        0.000
  CSO10                JUNCTION        0.75          0.560        0.000
  J4                   JUNCTION        1.67          0.601        1.099
  
  
  *********************
  Node Flooding Summary
  *********************
  
  Flooding refers to all water that overflows a node, whether it ponds or not.
  --------------------------------------------------------------------------
                                                             Total   Maximum
                                 Maximum   Time of Max       Flood    Ponded
                        Hours       Rate    Occurrence      Volume     Depth
  Node                 Flooded       CMS   days hr:min    10^6 ltr    Meters
  --------------------------------------------------------------------------
  CSO7                    1.53     0.464      0  01:35       0.888     0.000
  CSO9                    0.84     0.547      0  01:35       0.503     0.000
  CSO8                    1.20     3.014      0  01:30       4.903     0.000
  CSO10                   0.65     0.597      0  01:35       0.433     0.000
  T5                      2.17     0.450      0  02:55       0.831     0.000
  T4                      3.59     0.728      0  02:55       1.704     0.000
  T6                      4.67     2.449      0  01:39       5.094     0.000
  T3                      1.53     3.677      0  02:49       3.489     0.000
  T2                      3.11     3.107      0  02:55       4.979     0.000
  T1                      2.07     1.852      0  01:41       2.958     0.000
  
  
  **********************
  Storage Volume Summary
  **********************
  
  ------------------------------------------------------------------------------------------------
                         Average    Avg   Evap  Exfil     Maximum    Max    Time of Max    Maximum
                          Volume   Pcnt   Pcnt   Pcnt      Volume   Pcnt     Occurrence    Outflow
  Storage Unit           1000 m³   Full   Loss   Loss     1000 m³   Full    days hr:min        CMS
  ------------------------------------------------------------------------------------------------
  T5                       0.395   79.0    0.0    0.0       0.500  100.0       0  01:47      0.039
  T4                       0.400   80.0    0.0    0.0       0.500  100.0       0  01:50      0.028
  T6                       0.497   82.9    0.0    0.0       0.600  100.0       0  01:39      0.075
  T3                       2.048   78.8    0.0    0.0       2.600  100.0       0  02:22      0.410
  T2                       0.822   82.2    0.0    0.0       1.000  100.0       0  01:39      0.033
  T1                       0.535   76.5    0.0    0.0       0.700  100.0       0  01:41      0.271
  
  
  ***********************
  Outfall Loading Summary
  ***********************
  
  -----------------------------------------------------------
                         Flow       Avg       Max       Total
                         Freq      Flow      Flow      Volume
  Outfall Node           Pcnt       CMS       CMS    10^6 ltr
  -----------------------------------------------------------
  Out_to_WWTP           99.11     0.221     0.271       6.024
  -----------------------------------------------------------
  System                99.11     0.221     0.271       6.024
  
  
  ********************
  Link Flow Summary
  ********************
  
  -----------------------------------------------------------------------------
                                 Maximum  Time of Max   Maximum    Max/    Max/
                                  |Flow|   Occurrence   |Veloc|    Full    Full
  Link                 Type          CMS  days hr:min     m/sec    Flow   Depth
  -----------------------------------------------------------------------------
  C1                   CONDUIT     0.039     0  02:34      1.06    0.01    0.11
  C6                   CONDUIT     0.076     0  01:33      1.29    1.21    1.00
  C2                   CONDUIT     0.028     0  03:25      1.02    0.03    0.18
  C9                   CONDUIT     0.127     0  01:57      1.26    0.43    0.73
  C16                  CONDUIT     0.486     0  02:01      1.85    0.05    0.22
  C3                   CONDUIT     0.125     0  03:48      1.90    0.05    0.14
  C19                  CONDUIT     0.033     0  04:35      0.70    0.01    0.30
  C11                  CONDUIT     0.191     0  03:25      1.79    0.01    0.16
  C20                  CONDUIT     2.622     0  01:35      4.95    0.08    0.23
  C22                  CONDUIT     0.202     0  01:51      1.70    0.09    0.44
  C12                  CONDUIT     0.075     0  02:10      0.63    0.01    0.33
  C17                  CONDUIT     3.716     0  01:31      4.86    0.18    0.44
  C10                  CONDUIT     2.479     0  01:40      1.96    0.26    0.67
  C13                  CONDUIT     3.802     0  02:49      3.55    0.22    0.81
  C18                  CONDUIT     3.818     0  01:35      3.36    0.14    0.63
  C23                  CONDUIT     2.558     0  01:37      2.08    0.28    0.68
  C4                   CONDUIT     1.201     0  01:35      3.06    0.29    0.69
  C7                   CONDUIT     0.836     0  01:35      1.54    0.21    0.65
  C14                  CONDUIT     0.271     0  01:43      2.08    0.02    0.09
  C5                   CONDUIT     0.085     0  01:28      1.68    1.45    1.00
  C8                   CONDUIT     0.127     0  01:57      1.91    1.60    0.86
  C15                  CONDUIT     0.487     0  03:08      3.69    1.55    0.83
  C21                  CONDUIT     0.202     0  01:51      1.87    1.16    0.69
  V4                   ORIFICE     0.028     0  01:50                      0.35
  V5                   ORIFICE     0.039     0  01:48                      1.00
  V1                   ORIFICE     0.271     0  01:42                      1.00
  V6                   ORIFICE     0.075     0  01:50                      0.43
  V3                   ORIFICE     0.124     0  02:31                      0.65
  V2                   ORIFICE     0.033     0  02:15                      0.24
  
  
  ***************************
  Flow Classification Summary
  ***************************
  
  -------------------------------------------------------------------------------------
                      Adjusted    ---------- Fraction of Time in Flow Class ---------- 
                       /Actual         Up    Down  Sub   Sup   Up    Down  Norm  Inlet 
  Conduit               Length    Dry  Dry   Dry   Crit  Crit  Crit  Crit  Ltd   Ctrl  
  -------------------------------------------------------------------------------------
  C1                      1.00   0.00  0.00  0.00  0.06  0.94  0.00  0.00  0.94  0.00
  C6                      1.00   0.00  0.00  0.00  0.25  0.75  0.00  0.00  0.00  0.00
  C2                      1.00   0.00  0.00  0.00  0.54  0.46  0.00  0.00  0.98  0.00
  C9                      1.00   0.00  0.00  0.00  1.00  0.00  0.00  0.00  1.00  0.00
  C16                     1.00   0.00  0.00  0.00  0.61  0.39  0.00  0.00  0.45  0.00
  C3                      1.00   0.00  0.01  0.00  0.05  0.94  0.00  0.00  0.47  0.00
  C19                     1.00   0.00  0.00  0.00  1.00  0.00  0.00  0.00  1.00  0.00
  C11                     1.00   0.00  0.00  0.00  0.26  0.74  0.00  0.00  1.00  0.00
  C20                     1.00   0.00  0.00  0.00  0.55  0.45  0.00  0.00  0.97  0.00
  C22                     1.00   0.00  0.00  0.00  0.86  0.14  0.00  0.00  1.00  0.00
  C12                     1.00   0.00  0.00  0.00  1.00  0.00  0.00  0.00  1.00  0.00
  C17                     1.00   0.00  0.00  0.00  0.74  0.26  0.00  0.00  0.95  0.00
  C10                     1.00   0.00  0.00  0.00  0.96  0.04  0.00  0.00  0.98  0.00
  C13                     1.00   0.00  0.00  0.00  0.85  0.15  0.00  0.00  0.13  0.00
  C18                     1.00   0.00  0.00  0.00  0.93  0.07  0.00  0.00  0.97  0.00
  C23                     1.00   0.00  0.00  0.00  0.86  0.14  0.00  0.00  0.95  0.00
  C4                      1.00   0.00  0.00  0.00  0.96  0.04  0.00  0.00  0.98  0.00
  C7                      1.00   0.00  0.00  0.00  0.94  0.06  0.00  0.00  0.97  0.00
  C14                     1.00   0.00  0.01  0.00  0.01  0.98  0.00  0.00  0.25  0.00
  C5                      1.00   0.00  0.00  0.00  0.95  0.05  0.00  0.00  0.75  0.00
  C8                      1.00   0.00  0.00  0.00  0.17  0.83  0.00  0.00  0.00  0.00
  C15                     1.00   0.00  0.00  0.00  0.00  1.00  0.00  0.00  0.00  0.00
  C21                     1.00   0.00  0.00  0.00  0.01  0.99  0.00  0.00  0.00  0.00
  
  
  *************************
  Conduit Surcharge Summary
  *************************
  
  ----------------------------------------------------------------------------
                                                           Hours        Hours 
                         --------- Hours Full --------   Above Full   Capacity
  Conduit                Both Ends  Upstream  Dnstream   Normal Flow   Limited
  ----------------------------------------------------------------------------
  C6                          0.04      1.67      0.04      1.52         0.04
  C9                          0.01      0.01      0.11      0.01         0.01
  C10                         0.01      0.01      6.39      0.01         0.01
  C13                         0.01      0.01      6.29      0.01         0.01
  C18                         0.01      0.01      6.36      0.01         0.01
  C23                         0.01      0.01      6.35      0.01         0.01
  C4                          0.01      0.01      6.41      0.01         0.01
  C7                          0.01      0.01      6.36      0.01         0.01
  C5                          1.66      1.73      1.86      1.72         1.61
  C8                          0.01      1.27      0.01      1.30         0.01
  C15                         0.01      1.42      0.01      1.45         0.01
  C21                         0.01      0.74      0.01      0.73         0.01
  

  Analysis begun on:  Sun Oct 20 17:01:56 2024
  Analysis ended on:  Sun Oct 20 17:01:56 2024
  Total elapsed time: < 1 sec