
  EPA STORM WATER MANAGEMENT MODEL - VERSION 5.2 (Build 5.2.4)
  PYSWMM TOOLKIT API - VERSION v1.0 (2023-11-27)
  ------------------------------------------------------------

  
  ****************
  Analysis Options
  ****************
  Flow Units ............... CMS
  Process Models:
    Rainfall/Runoff ........ YES
    RDII ................... NO
    Snowmelt ............... NO
    Groundwater ............ NO
    Flow Routing ........... YES
    Ponding Allowed ........ YES
    Water Quality .......... NO
  Infiltration Method ...... HORTON
  Flow Routing Method ...... DYNWAVE
  Surcharge Method ......... EXTRAN
  Starting Date ............ 01/01/2000 08:00:00
  Ending Date .............. 01/01/2000 16:00:00
  Antecedent Dry Days ...... 0.0
  Report Time Step ......... 00:05:00
  Wet Time Step ............ 00:05:00
  Dry Time Step ............ 00:05:00
  Routing Time Step ........ 30.00 sec
  Variable Time Step ....... YES
  Maximum Trials ........... 8
  Number of Threads ........ 1
  Head Tolerance ........... 0.001500 m
  
  
  **************************        Volume         Depth
  Runoff Quantity Continuity     hectare-m            mm
  **************************     ---------       -------
  Total Precipitation ......         3.209        17.810
  Evaporation Loss .........         0.000         0.000
  Infiltration Loss ........         0.000         0.000
  Surface Runoff ...........         3.197        17.743
  Final Storage ............         0.023         0.130
  Continuity Error (%) .....        -0.352
  
  
  **************************        Volume        Volume
  Flow Routing Continuity        hectare-m      10^6 ltr
  **************************     ---------     ---------
  Dry Weather Inflow .......         0.399         3.989
  Wet Weather Inflow .......         3.198        31.983
  Groundwater Inflow .......         0.000         0.000
  RDII Inflow ..............         0.000         0.000
  External Inflow ..........         0.000         0.000
  External Outflow .........         0.575         5.751
  Flooding Loss ............         1.958        19.582
  Evaporation Loss .........         0.000         0.000
  Exfiltration Loss ........         0.000         0.000
  Initial Stored Volume ....         0.000         0.000
  Final Stored Volume ......         0.810         8.104
  Continuity Error (%) .....         7.046
  
  
  *************************
  Highest Continuity Errors
  *************************
  Node T2 (22.72%)
  Node T4 (18.15%)
  Node T3 (15.07%)
  Node T5 (13.16%)
  Node T6 (9.66%)
  
  
  ***************************
  Time-Step Critical Elements
  ***************************
  Link C15 (52.21%)
  
  
  ********************************
  Highest Flow Instability Indexes
  ********************************
  Link C13 (8)
  Link C3 (6)
  Link C2 (5)
  Link C11 (5)
  Link C12 (5)
  
  
  *********************************
  Most Frequent Nonconverging Nodes
  *********************************
  Node Out_to_WWTP (2.40%)
  Node CSO7 (1.47%)
  Node J4 (1.24%)
  Node CSO9 (0.62%)
  Node CSO8 (0.23%)
  
  
  *************************
  Routing Time Step Summary
  *************************
  Minimum Time Step           :     0.20 sec
  Average Time Step           :    22.08 sec
  Maximum Time Step           :    30.00 sec
  % of Time in Steady State   :     0.00
  Average Iterations per Step :     2.65
  % of Steps Not Converging   :     2.40
  Time Step Frequencies       :
     30.000 - 13.228 sec      :    65.37 %
     13.228 -  5.833 sec      :    34.08 %
      5.833 -  2.572 sec      :     0.54 %
      2.572 -  1.134 sec      :     0.00 %
      1.134 -  0.500 sec      :     0.00 %
  
  
  ***************************
  Subcatchment Runoff Summary
  ***************************
  
  ------------------------------------------------------------------------------------------------------------------------------
                            Total      Total      Total      Total     Imperv       Perv      Total       Total     Peak  Runoff
                           Precip      Runon       Evap      Infil     Runoff     Runoff     Runoff      Runoff   Runoff   Coeff
  Subcatchment                 mm         mm         mm         mm         mm         mm         mm    10^6 ltr      CMS
  ------------------------------------------------------------------------------------------------------------------------------
  SC01                      15.45       0.00       0.00       0.00      15.43       0.00      15.43        5.09     2.26   0.999
  SC02                      15.08       0.00       0.00       0.00      15.09       0.00      15.09        3.43     1.86   1.001
  SC03                      21.92       0.00       0.00       0.00      21.96       0.00      21.96        3.95     1.03   1.002
  SC04                      15.08       0.00       0.00       0.00      14.94       0.00      14.94        1.03     0.39   0.991
  SC05                      15.45       0.00       0.00       0.00      15.42       0.00      15.42        2.41     1.03   0.998
  SC06                      19.01       0.00       0.00       0.00      18.78       0.00      18.78        6.11     1.11   0.988
  SC07                      15.08       0.00       0.00       0.00      14.94       0.00      14.94        0.71     0.27   0.991
  SC08                      21.92       0.00       0.00       0.00      21.87       0.00      21.87        6.12     1.43   0.998
  SC09                      19.01       0.00       0.00       0.00      18.90       0.00      18.90        1.30     0.26   0.994
  SC010                     15.45       0.00       0.00       0.00      15.39       0.00      15.39        1.81     0.71   0.996
  
  
  ******************
  Node Depth Summary
  ******************
  
  ---------------------------------------------------------------------------------
                                 Average  Maximum  Maximum  Time of Max    Reported
                                   Depth    Depth      HGL   Occurrence   Max Depth
  Node                 Type       Meters   Meters   Meters  days hr:min      Meters
  ---------------------------------------------------------------------------------
  J1                   JUNCTION     0.11     0.34    34.34     0  02:25        0.33
  J3                   JUNCTION     0.10     0.14    18.14     0  03:30        0.14
  CSO7                 JUNCTION     0.38     1.20    35.20     0  01:58        1.20
  J5                   JUNCTION     0.09     0.23    32.23     0  02:21        0.22
  CSO9                 JUNCTION     0.77     2.00    42.00     0  01:29        2.00
  J8                   JUNCTION     0.18     0.37    36.37     0  02:15        0.37
  CSO8                 JUNCTION     0.84     2.00    34.00     0  01:15        2.00
  J10                  JUNCTION     0.17     0.37    29.37     0  02:11        0.36
  J13                  JUNCTION     0.10     0.35    29.35     0  02:20        0.35
  J15                  JUNCTION     0.21     0.53    15.53     0  02:28        0.52
  J16                  JUNCTION     0.11     0.36    30.36     0  02:25        0.35
  CSO10                JUNCTION     0.32     1.00    31.00     0  01:58        1.00
  J12                  JUNCTION     0.71     1.13    27.13     0  02:31        1.11
  J4                   JUNCTION     0.26     0.94    33.94     0  01:58        0.75
  J6                   JUNCTION     0.05     0.07    25.07     0  04:55        0.07
  J2                   JUNCTION     0.07     0.08    25.08     0  03:35        0.08
  J19                  JUNCTION     0.14     0.17     8.17     0  02:15        0.17
  J9                   JUNCTION     0.08     0.11    29.11     0  03:50        0.11
  J14                  JUNCTION     0.11     0.15    20.15     0  06:13        0.15
  J17                  JUNCTION     0.06     0.08    20.08     0  03:10        0.08
  J7                   JUNCTION     0.13     0.23    39.23     0  02:49        0.23
  J11                  JUNCTION     0.17     0.30    31.30     0  03:00        0.30
  J18                  JUNCTION     0.08     0.16    29.16     0  02:52        0.16
  Out_to_WWTP          OUTFALL      0.14     0.17     6.17     0  02:14        0.17
  T5                   STORAGE      3.41     5.00    32.00     0  02:24        5.00
  T4                   STORAGE      3.30     5.00    32.00     0  02:38        5.00
  T6                   STORAGE      3.90     5.00    36.00     0  01:57        5.00
  T3                   STORAGE      3.72     5.00    27.00     0  02:25        5.00
  T2                   STORAGE      3.39     5.00    26.00     0  02:26        5.00
  T1                   STORAGE      3.32     5.00    15.00     0  02:14        5.00
  
  
  *******************
  Node Inflow Summary
  *******************
  
  -------------------------------------------------------------------------------------------------
                                  Maximum  Maximum                  Lateral       Total        Flow
                                  Lateral    Total  Time of Max      Inflow      Inflow     Balance
                                   Inflow   Inflow   Occurrence      Volume      Volume       Error
  Node                 Type           CMS      CMS  days hr:min    10^6 ltr    10^6 ltr     Percent
  -------------------------------------------------------------------------------------------------
  J1                   JUNCTION     1.052    1.052     0  02:25        2.97        2.97       0.016
  J3                   JUNCTION     0.000    0.191     0  05:38           0        3.46       1.073
  CSO7                 JUNCTION     0.279    0.279     0  02:20           1           1       0.058
  J5                   JUNCTION     0.394    0.468     0  02:20        1.16        1.88       0.100
  CSO9                 JUNCTION     0.265    0.265     0  02:15         1.5         1.5       0.044
  J8                   JUNCTION     1.148    1.276     0  02:15        7.07        8.16       0.062
  CSO8                 JUNCTION     1.441    1.441     0  02:25        6.42        6.42       0.012
  J10                  JUNCTION     1.044    1.530     0  02:10        4.34        8.43      -0.063
  J13                  JUNCTION     1.873    1.873     0  02:20        3.91        3.91      -0.075
  J15                  JUNCTION     0.000    2.642     0  02:25           0          11       0.686
  J16                  JUNCTION     2.276    2.276     0  02:25        5.65        5.65      -0.020
  CSO10                JUNCTION     0.714    0.714     0  02:25        1.95        1.95       0.029
  J12                  JUNCTION     0.000    1.669     0  02:19           0        9.73       8.101
  J4                   JUNCTION     0.000    0.075     0  02:20           0       0.722       0.515
  J6                   JUNCTION     0.000    0.028     0  03:20           0       0.456       0.891
  J2                   JUNCTION     0.000    0.039     0  02:25           0       0.874       0.588
  J19                  JUNCTION     0.000    0.271     0  02:14           0        5.76       0.189
  J9                   JUNCTION     0.000    0.075     0  02:05           0        1.26       1.366
  J14                  JUNCTION     0.000    0.124     0  02:25           0        2.14       0.362
  J17                  JUNCTION     0.000    0.033     0  02:45           0       0.593       1.086
  J7                   JUNCTION     0.000    0.127     0  02:49           0         1.1       0.279
  J11                  JUNCTION     0.000    0.486     0  02:59           0        4.09       0.179
  J18                  JUNCTION     0.000    0.202     0  02:35           0        1.36       0.053
  Out_to_WWTP          OUTFALL      0.000    0.271     0  02:15           0        5.75       0.000
  T5                   STORAGE      0.000    1.039     0  02:25           0        2.97      15.155
  T4                   STORAGE      0.000    0.463     0  02:21           0        1.88      22.182
  T6                   STORAGE      0.000    1.271     0  02:15           0        8.16      10.694
  T3                   STORAGE      0.000    2.108     0  02:33           0           9      17.746
  T2                   STORAGE      0.000    1.844     0  02:20           0        3.91      29.391
  T1                   STORAGE      0.000    2.392     0  02:28           0        10.9       5.400
  
  
  **********************
  Node Surcharge Summary
  **********************
  
  Surcharging occurs when water rises above the top of the highest conduit.
  ---------------------------------------------------------------------
                                               Max. Height   Min. Depth
                                   Hours       Above Crown    Below Rim
  Node                 Type      Surcharged         Meters       Meters
  ---------------------------------------------------------------------
  CSO7                 JUNCTION        1.30          0.945        0.000
  CSO9                 JUNCTION        1.78          1.682        0.000
  CSO8                 JUNCTION        1.93          1.547        0.000
  CSO10                JUNCTION        1.10          0.560        0.000
  J4                   JUNCTION        1.26          0.637        1.063
  
  
  *********************
  Node Flooding Summary
  *********************
  
  Flooding refers to all water that overflows a node, whether it ponds or not.
  --------------------------------------------------------------------------
                                                             Total   Maximum
                                 Maximum   Time of Max       Flood    Ponded
                        Hours       Rate    Occurrence      Volume     Depth
  Node                 Flooded       CMS   days hr:min    10^6 ltr    Meters
  --------------------------------------------------------------------------
  CSO7                    1.12     0.204      0  02:20       0.281     0.000
  CSO9                    1.56     0.137      0  02:15       0.403     0.000
  CSO8                    1.56     0.955      0  02:25       2.323     0.000
  CSO10                   1.02     0.509      0  02:25       0.591     0.000
  T5                      1.49     0.998      0  02:25       1.309     0.000
  T4                      2.68     0.270      0  02:40       0.607     0.000
  T6                      3.54     1.233      0  02:35       5.539     0.000
  T3                      2.32     1.983      0  02:34       2.886     0.000
  T2                      2.14     1.253      0  02:26       1.481     0.000
  T1                      1.61     2.121      0  02:28       4.151     0.000
  
  
  **********************
  Storage Volume Summary
  **********************
  
  ------------------------------------------------------------------------------------------------
                         Average    Avg   Evap  Exfil     Maximum    Max    Time of Max    Maximum
                          Volume   Pcnt   Pcnt   Pcnt      Volume   Pcnt     Occurrence    Outflow
  Storage Unit           1000 m³   Full   Loss   Loss     1000 m³   Full    days hr:min        CMS
  ------------------------------------------------------------------------------------------------
  T5                       0.341   68.2    0.0    0.0       0.500  100.0       0  02:24      0.039
  T4                       0.330   66.0    0.0    0.0       0.500  100.0       0  02:38      0.028
  T6                       0.469   78.1    0.0    0.0       0.600  100.0       0  01:57      0.075
  T3                       1.936   74.5    0.0    0.0       2.600  100.0       0  02:25      0.223
  T2                       0.679   67.9    0.0    0.0       1.000  100.0       0  02:26      0.033
  T1                       0.465   66.4    0.0    0.0       0.700  100.0       0  02:14      0.271
  
  
  ***********************
  Outfall Loading Summary
  ***********************
  
  -----------------------------------------------------------
                         Flow       Avg       Max       Total
                         Freq      Flow      Flow      Volume
  Outfall Node           Pcnt       CMS       CMS    10^6 ltr
  -----------------------------------------------------------
  Out_to_WWTP           99.15     0.202     0.271       5.751
  -----------------------------------------------------------
  System                99.15     0.202     0.271       5.751
  
  
  ********************
  Link Flow Summary
  ********************
  
  -----------------------------------------------------------------------------
                                 Maximum  Time of Max   Maximum    Max/    Max/
                                  |Flow|   Occurrence   |Veloc|    Full    Full
  Link                 Type          CMS  days hr:min     m/sec    Flow   Depth
  -----------------------------------------------------------------------------
  C1                   CONDUIT     0.039     0  03:12      1.06    0.01    0.11
  C6                   CONDUIT     0.075     0  02:20      1.29    1.19    0.88
  C2                   CONDUIT     0.028     0  04:55      1.00    0.03    0.18
  C9                   CONDUIT     0.127     0  02:49      1.30    0.43    0.60
  C16                  CONDUIT     0.489     0  01:53      1.81    0.05    0.17
  C3                   CONDUIT     0.125     0  05:13      1.90    0.05    0.14
  C19                  CONDUIT     0.033     0  03:10      0.69    0.01    0.30
  C11                  CONDUIT     0.191     0  03:30      1.76    0.01    0.16
  C20                  CONDUIT     2.241     0  02:25      4.58    0.07    0.22
  C22                  CONDUIT     0.202     0  02:34      1.57    0.09    0.43
  C12                  CONDUIT     0.075     0  03:50      0.56    0.01    0.30
  C17                  CONDUIT     1.494     0  02:11      3.60    0.07    0.37
  C10                  CONDUIT     1.271     0  02:15      1.66    0.13    0.62
  C13                  CONDUIT     2.108     0  02:33      2.41    0.12    0.78
  C18                  CONDUIT     1.844     0  02:20      3.36    0.07    0.59
  C23                  CONDUIT     2.392     0  02:28      1.88    0.26    0.68
  C4                   CONDUIT     1.039     0  02:25      3.06    0.25    0.67
  C7                   CONDUIT     0.463     0  02:21      1.44    0.11    0.61
  C14                  CONDUIT     0.271     0  02:15      2.08    0.02    0.09
  C5                   CONDUIT     0.075     0  02:20      1.46    1.28    1.00
  C8                   CONDUIT     0.127     0  02:49      1.77    1.60    0.86
  C15                  CONDUIT     0.486     0  02:59      3.45    1.55    0.83
  C21                  CONDUIT     0.202     0  02:35      1.83    1.16    0.69
  V4                   ORIFICE     0.028     0  03:20                      0.35
  V5                   ORIFICE     0.039     0  02:25                      1.00
  V1                   ORIFICE     0.271     0  02:14                      1.00
  V6                   ORIFICE     0.075     0  02:05                      0.43
  V3                   ORIFICE     0.124     0  02:25                      0.65
  V2                   ORIFICE     0.033     0  02:45                      0.24
  
  
  ***************************
  Flow Classification Summary
  ***************************
  
  -------------------------------------------------------------------------------------
                      Adjusted    ---------- Fraction of Time in Flow Class ---------- 
                       /Actual         Up    Down  Sub   Sup   Up    Down  Norm  Inlet 
  Conduit               Length    Dry  Dry   Dry   Crit  Crit  Crit  Crit  Ltd   Ctrl  
  -------------------------------------------------------------------------------------
  C1                      1.00   0.00  0.00  0.00  0.07  0.92  0.00  0.00  0.94  0.00
  C6                      1.00   0.00  0.00  0.00  0.19  0.81  0.00  0.00  0.00  0.00
  C2                      1.00   0.00  0.00  0.00  0.66  0.34  0.00  0.00  0.98  0.00
  C9                      1.00   0.00  0.00  0.00  1.00  0.00  0.00  0.00  1.00  0.00
  C16                     1.00   0.00  0.00  0.00  0.58  0.42  0.00  0.00  0.51  0.00
  C3                      1.00   0.00  0.01  0.00  0.05  0.95  0.00  0.00  0.47  0.00
  C19                     1.00   0.00  0.00  0.00  1.00  0.00  0.00  0.00  1.00  0.00
  C11                     1.00   0.00  0.00  0.00  0.35  0.65  0.00  0.00  1.00  0.00
  C20                     1.00   0.00  0.00  0.00  0.56  0.44  0.00  0.00  0.98  0.00
  C22                     1.00   0.00  0.00  0.00  0.80  0.20  0.00  0.00  1.00  0.00
  C12                     1.00   0.00  0.00  0.00  1.00  0.00  0.00  0.00  1.00  0.00
  C17                     1.00   0.00  0.00  0.00  0.70  0.30  0.00  0.00  0.94  0.00
  C10                     1.00   0.00  0.00  0.00  0.96  0.04  0.00  0.00  0.98  0.00
  C13                     1.00   0.00  0.00  0.00  0.84  0.16  0.00  0.00  0.17  0.00
  C18                     1.00   0.00  0.00  0.00  0.94  0.06  0.00  0.00  0.97  0.00
  C23                     1.00   0.00  0.00  0.00  0.88  0.12  0.00  0.00  0.95  0.00
  C4                      1.00   0.00  0.00  0.00  0.96  0.04  0.00  0.00  0.98  0.00
  C7                      1.00   0.00  0.00  0.00  0.95  0.05  0.00  0.00  0.97  0.00
  C14                     1.00   0.00  0.01  0.00  0.01  0.98  0.00  0.00  0.21  0.00
  C5                      1.00   0.00  0.00  0.00  0.90  0.10  0.00  0.00  0.82  0.00
  C8                      1.00   0.00  0.00  0.00  0.23  0.77  0.00  0.00  0.00  0.00
  C15                     1.00   0.00  0.00  0.00  0.00  1.00  0.00  0.00  0.00  0.00
  C21                     1.00   0.00  0.00  0.00  0.00  1.00  0.00  0.00  0.00  0.00
  
  
  *************************
  Conduit Surcharge Summary
  *************************
  
  ----------------------------------------------------------------------------
                                                           Hours        Hours 
                         --------- Hours Full --------   Above Full   Capacity
  Conduit                Both Ends  Upstream  Dnstream   Normal Flow   Limited
  ----------------------------------------------------------------------------
  C6                          0.01      1.26      0.01      1.17         0.01
  C10                         0.01      0.01      6.34      0.01         0.01
  C13                         0.01      0.01      6.20      0.01         0.01
  C18                         0.01      0.01      5.78      0.01         0.01
  C23                         0.01      0.01      6.14      0.01         0.01
  C4                          0.01      0.01      6.23      0.01         0.01
  C7                          0.01      0.01      5.97      0.01         0.01
  C5                          1.28      1.30      1.38      1.33         1.26
  C8                          0.01      1.78      0.01      1.80         0.01
  C15                         0.01      1.93      0.01      1.97         0.01
  C21                         0.01      1.10      0.01      1.10         0.01
  

  Analysis begun on:  Sun Oct 20 17:13:14 2024
  Analysis ended on:  Sun Oct 20 17:13:15 2024
  Total elapsed time: 00:00:01