
  EPA STORM WATER MANAGEMENT MODEL - VERSION 5.2 (Build 5.2.4)
  PYSWMM TOOLKIT API - VERSION v1.0 (2023-11-27)
  ------------------------------------------------------------

  
  ****************
  Analysis Options
  ****************
  Flow Units ............... CMS
  Process Models:
    Rainfall/Runoff ........ YES
    RDII ................... NO
    Snowmelt ............... NO
    Groundwater ............ NO
    Flow Routing ........... YES
    Ponding Allowed ........ YES
    Water Quality .......... NO
  Infiltration Method ...... HORTON
  Flow Routing Method ...... DYNWAVE
  Surcharge Method ......... EXTRAN
  Starting Date ............ 01/01/2000 08:00:00
  Ending Date .............. 01/01/2000 16:00:00
  Antecedent Dry Days ...... 0.0
  Report Time Step ......... 00:05:00
  Wet Time Step ............ 00:05:00
  Dry Time Step ............ 00:05:00
  Routing Time Step ........ 30.00 sec
  Variable Time Step ....... YES
  Maximum Trials ........... 8
  Number of Threads ........ 1
  Head Tolerance ........... 0.001500 m
  
  
  **************************        Volume         Depth
  Runoff Quantity Continuity     hectare-m            mm
  **************************     ---------       -------
  Total Precipitation ......         3.221        17.877
  Evaporation Loss .........         0.000         0.000
  Infiltration Loss ........         0.000         0.000
  Surface Runoff ...........         3.217        17.853
  Final Storage ............         0.024         0.131
  Continuity Error (%) .....        -0.597
  
  
  **************************        Volume        Volume
  Flow Routing Continuity        hectare-m      10^6 ltr
  **************************     ---------     ---------
  Dry Weather Inflow .......         0.399         3.989
  Wet Weather Inflow .......         3.217        32.172
  Groundwater Inflow .......         0.000         0.000
  RDII Inflow ..............         0.000         0.000
  External Inflow ..........         0.000         0.000
  External Outflow .........         0.593         5.933
  Flooding Loss ............         1.957        19.567
  Evaporation Loss .........         0.000         0.000
  Exfiltration Loss ........         0.000         0.000
  Initial Stored Volume ....         0.000         0.000
  Final Stored Volume ......         0.811         8.109
  Continuity Error (%) .....         7.058
  
  
  *************************
  Highest Continuity Errors
  *************************
  Node T2 (20.49%)
  Node T3 (18.67%)
  Node T4 (16.12%)
  Node T5 (11.48%)
  Node J12 (9.31%)
  
  
  ***************************
  Time-Step Critical Elements
  ***************************
  Link C15 (49.22%)
  
  
  ********************************
  Highest Flow Instability Indexes
  ********************************
  Link C13 (9)
  Link C11 (5)
  Link C2 (5)
  Link C12 (5)
  Link C3 (5)
  
  
  *********************************
  Most Frequent Nonconverging Nodes
  *********************************
  Node Out_to_WWTP (3.43%)
  Node CSO7 (1.71%)
  Node J4 (1.39%)
  Node CSO9 (0.82%)
  Node CSO8 (0.65%)
  
  
  *************************
  Routing Time Step Summary
  *************************
  Minimum Time Step           :     0.16 sec
  Average Time Step           :    23.27 sec
  Maximum Time Step           :    30.00 sec
  % of Time in Steady State   :     0.00
  Average Iterations per Step :     2.81
  % of Steps Not Converging   :     3.43
  Time Step Frequencies       :
     30.000 - 13.228 sec      :    76.70 %
     13.228 -  5.833 sec      :    22.98 %
      5.833 -  2.572 sec      :     0.16 %
      2.572 -  1.134 sec      :     0.08 %
      1.134 -  0.500 sec      :     0.08 %
  
  
  ***************************
  Subcatchment Runoff Summary
  ***************************
  
  ------------------------------------------------------------------------------------------------------------------------------
                            Total      Total      Total      Total     Imperv       Perv      Total       Total     Peak  Runoff
                           Precip      Runon       Evap      Infil     Runoff     Runoff     Runoff      Runoff   Runoff   Coeff
  Subcatchment                 mm         mm         mm         mm         mm         mm         mm    10^6 ltr      CMS
  ------------------------------------------------------------------------------------------------------------------------------
  SC01                      18.31       0.00       0.00       0.00      18.34       0.00      18.34        6.05     3.10   1.002
  SC02                      17.41       0.00       0.00       0.00      17.43       0.00      17.43        3.97     1.50   1.001
  SC03                      15.70       0.00       0.00       0.00      15.78       0.00      15.78        2.84     1.41   1.005
  SC04                      17.41       0.00       0.00       0.00      17.28       0.00      17.28        1.19     0.35   0.992
  SC05                      18.31       0.00       0.00       0.00      18.33       0.00      18.33        2.86     1.43   1.001
  SC06                      20.16       0.00       0.00       0.00      20.00       0.00      20.00        6.51     2.84   0.992
  SC07                      17.41       0.00       0.00       0.00      17.28       0.00      17.28        0.82     0.24   0.992
  SC08                      15.70       0.00       0.00       0.00      15.67       0.00      15.67        4.39     1.60   0.998
  SC09                      20.16       0.00       0.00       0.00      20.17       0.00      20.17        1.39     0.74   1.000
  SC010                     18.31       0.00       0.00       0.00      18.29       0.00      18.29        2.15     1.01   0.999
  
  
  ******************
  Node Depth Summary
  ******************
  
  ---------------------------------------------------------------------------------
                                 Average  Maximum  Maximum  Time of Max    Reported
                                   Depth    Depth      HGL   Occurrence   Max Depth
  Node                 Type       Meters   Meters   Meters  days hr:min      Meters
  ---------------------------------------------------------------------------------
  J1                   JUNCTION     0.12     0.42    34.42     0  02:40        0.41
  J3                   JUNCTION     0.10     0.14    18.14     0  04:35        0.14
  CSO7                 JUNCTION     0.45     1.20    35.20     0  01:41        1.20
  J5                   JUNCTION     0.10     0.22    32.22     0  02:40        0.22
  CSO9                 JUNCTION     0.65     2.00    42.00     0  01:46        2.00
  J8                   JUNCTION     0.18     0.61    36.61     0  02:41        0.57
  CSO8                 JUNCTION     0.61     2.00    34.00     0  01:38        2.00
  J10                  JUNCTION     0.15     0.41    29.41     0  02:36        0.40
  J13                  JUNCTION     0.11     0.32    29.32     0  02:40        0.32
  J15                  JUNCTION     0.23     0.66    15.66     0  02:42        0.61
  J16                  JUNCTION     0.11     0.42    30.42     0  02:40        0.42
  CSO10                JUNCTION     0.37     1.00    31.00     0  01:43        1.00
  J12                  JUNCTION     0.65     1.09    27.09     0  02:56        1.07
  J4                   JUNCTION     0.30     1.04    34.04     0  01:43        0.77
  J6                   JUNCTION     0.06     0.07    25.07     0  04:40        0.07
  J2                   JUNCTION     0.07     0.08    25.08     0  03:50        0.08
  J19                  JUNCTION     0.15     0.17     8.17     0  01:59        0.17
  J9                   JUNCTION     0.08     0.11    29.11     0  03:20        0.11
  J14                  JUNCTION     0.11     0.15    20.15     0  05:12        0.15
  J17                  JUNCTION     0.06     0.08    20.08     0  03:35        0.08
  J7                   JUNCTION     0.12     0.23    39.23     0  02:25        0.23
  J11                  JUNCTION     0.15     0.30    31.30     0  02:03        0.30
  J18                  JUNCTION     0.08     0.16    29.16     0  02:20        0.16
  Out_to_WWTP          OUTFALL      0.15     0.17     6.17     0  03:50        0.17
  T5                   STORAGE      3.74     5.00    32.00     0  02:11        5.00
  T4                   STORAGE      3.63     5.00    32.00     0  02:35        5.00
  T6                   STORAGE      3.84     5.00    36.00     0  02:06        5.00
  T3                   STORAGE      3.53     5.00    27.00     0  02:56        5.00
  T2                   STORAGE      3.80     5.00    26.00     0  02:20        5.00
  T1                   STORAGE      3.65     5.00    15.00     0  01:58        5.00
  
  
  *******************
  Node Inflow Summary
  *******************
  
  -------------------------------------------------------------------------------------------------
                                  Maximum  Maximum                  Lateral       Total        Flow
                                  Lateral    Total  Time of Max      Inflow      Inflow     Balance
                                   Inflow   Inflow   Occurrence      Volume      Volume       Error
  Node                 Type           CMS      CMS  days hr:min    10^6 ltr    10^6 ltr     Percent
  -------------------------------------------------------------------------------------------------
  J1                   JUNCTION     1.451    1.451     0  02:40        3.42        3.42       0.028
  J3                   JUNCTION     0.000    0.192     0  03:03           0        3.42       1.080
  CSO7                 JUNCTION     0.255    0.255     0  02:40        1.11        1.11       0.035
  J5                   JUNCTION     0.359    0.433     0  02:40        1.32        2.11       0.081
  CSO9                 JUNCTION     0.752    0.752     0  02:40        1.59        1.59       0.021
  J8                   JUNCTION     2.876    3.003     0  02:40        7.46        8.48       0.084
  CSO8                 JUNCTION     1.615    1.615     0  02:35        4.68        4.68       0.003
  J10                  JUNCTION     1.428    1.913     0  02:35        3.23        6.62      -0.046
  J13                  JUNCTION     1.518    1.518     0  02:40        4.44        4.44      -0.099
  J15                  JUNCTION     0.000    3.431     0  02:40           0        12.1       0.614
  J16                  JUNCTION     3.121    3.121     0  02:40        6.61        6.61      -0.013
  CSO10                JUNCTION     1.011    1.011     0  02:40        2.29        2.29      -0.004
  J12                  JUNCTION     0.000    1.912     0  02:36           0        7.98      10.271
  J4                   JUNCTION     0.000    0.081     0  01:42           0       0.788       0.459
  J6                   JUNCTION     0.000    0.028     0  02:55           0       0.492       0.781
  J2                   JUNCTION     0.000    0.039     0  02:11           0       0.896       0.565
  J19                  JUNCTION     0.000    0.271     0  01:58           0        5.94       0.184
  J9                   JUNCTION     0.000    0.075     0  02:25           0        1.23       0.675
  J14                  JUNCTION     0.000    0.124     0  03:10           0        2.05       0.365
  J17                  JUNCTION     0.000    0.033     0  02:30           0       0.574       1.111
  J7                   JUNCTION     0.000    0.127     0  02:25           0        1.02       0.302
  J11                  JUNCTION     0.000    0.487     0  02:03           0         3.4       0.208
  J18                  JUNCTION     0.000    0.202     0  02:19           0        1.52       0.056
  Out_to_WWTP          OUTFALL      0.000    0.271     0  02:00           0        5.93       0.000
  T5                   STORAGE      0.000    1.403     0  02:40           0        3.42      12.968
  T4                   STORAGE      0.000    0.427     0  02:40           0         2.1      19.212
  T6                   STORAGE      0.000    2.871     0  02:41           0        8.48      10.252
  T3                   STORAGE      0.000    1.777     0  02:38           0        7.24      22.954
  T2                   STORAGE      0.000    1.500     0  02:40           0        4.44      25.768
  T1                   STORAGE      0.000    2.907     0  02:42           0          12       4.883
  
  
  **********************
  Node Surcharge Summary
  **********************
  
  Surcharging occurs when water rises above the top of the highest conduit.
  ---------------------------------------------------------------------
                                               Max. Height   Min. Depth
                                   Hours       Above Crown    Below Rim
  Node                 Type      Surcharged         Meters       Meters
  ---------------------------------------------------------------------
  CSO7                 JUNCTION        1.59          0.945        0.000
  CSO9                 JUNCTION        1.49          1.682        0.000
  CSO8                 JUNCTION        1.28          1.547        0.000
  CSO10                JUNCTION        1.36          0.560        0.000
  J4                   JUNCTION        1.57          0.737        0.963
  
  
  *********************
  Node Flooding Summary
  *********************
  
  Flooding refers to all water that overflows a node, whether it ponds or not.
  --------------------------------------------------------------------------
                                                             Total   Maximum
                                 Maximum   Time of Max       Flood    Ponded
                        Hours       Rate    Occurrence      Volume     Depth
  Node                 Flooded       CMS   days hr:min    10^6 ltr    Meters
  --------------------------------------------------------------------------
  CSO7                    1.47     0.179      0  02:40       0.326     0.000
  CSO9                    1.22     0.619      0  02:40       0.566     0.000
  CSO8                    0.97     1.125      0  02:35       1.287     0.000
  CSO10                   1.27     0.803      0  02:40       0.768     0.000
  T5                      1.72     1.363      0  02:40       1.737     0.000
  T4                      2.58     0.412      0  02:40       0.803     0.000
  T6                      3.62     2.794      0  02:41       5.890     0.000
  T3                      0.94     1.433      0  02:58       1.144     0.000
  T2                      2.62     1.483      0  02:40       2.000     0.000
  T1                      1.74     2.637      0  02:42       5.037     0.000
  
  
  **********************
  Storage Volume Summary
  **********************
  
  ------------------------------------------------------------------------------------------------
                         Average    Avg   Evap  Exfil     Maximum    Max    Time of Max    Maximum
                          Volume   Pcnt   Pcnt   Pcnt      Volume   Pcnt     Occurrence    Outflow
  Storage Unit           1000 m³   Full   Loss   Loss     1000 m³   Full    days hr:min        CMS
  ------------------------------------------------------------------------------------------------
  T5                       0.374   74.8    0.0    0.0       0.500  100.0       0  02:11      0.039
  T4                       0.363   72.6    0.0    0.0       0.500  100.0       0  02:35      0.028
  T6                       0.461   76.9    0.0    0.0       0.600  100.0       0  02:06      0.075
  T3                       1.836   70.6    0.0    0.0       2.600  100.0       0  02:56      0.504
  T2                       0.760   76.0    0.0    0.0       1.000  100.0       0  02:20      0.033
  T1                       0.511   73.1    0.0    0.0       0.700  100.0       0  01:58      0.271
  
  
  ***********************
  Outfall Loading Summary
  ***********************
  
  -----------------------------------------------------------
                         Flow       Avg       Max       Total
                         Freq      Flow      Flow      Volume
  Outfall Node           Pcnt       CMS       CMS    10^6 ltr
  -----------------------------------------------------------
  Out_to_WWTP           99.10     0.216     0.271       5.933
  -----------------------------------------------------------
  System                99.10     0.216     0.271       5.933
  
  
  ********************
  Link Flow Summary
  ********************
  
  -----------------------------------------------------------------------------
                                 Maximum  Time of Max   Maximum    Max/    Max/
                                  |Flow|   Occurrence   |Veloc|    Full    Full
  Link                 Type          CMS  days hr:min     m/sec    Flow   Depth
  -----------------------------------------------------------------------------
  C1                   CONDUIT     0.039     0  02:56      1.13    0.01    0.11
  C6                   CONDUIT     0.074     0  02:40      1.29    1.18    0.86
  C2                   CONDUIT     0.028     0  04:40      1.00    0.03    0.18
  C9                   CONDUIT     0.127     0  02:26      1.26    0.43    0.73
  C16                  CONDUIT     0.486     0  02:51      1.81    0.05    0.18
  C3                   CONDUIT     0.125     0  05:13      1.89    0.05    0.14
  C19                  CONDUIT     0.033     0  03:35      0.71    0.01    0.36
  C11                  CONDUIT     0.191     0  04:35      1.78    0.01    0.19
  C20                  CONDUIT     3.075     0  02:40      4.76    0.10    0.26
  C22                  CONDUIT     0.202     0  02:19      1.59    0.09    0.51
  C12                  CONDUIT     0.075     0  03:20      0.61    0.01    0.30
  C17                  CONDUIT     1.851     0  02:36      3.94    0.09    0.34
  C10                  CONDUIT     2.871     0  02:41      2.16    0.30    0.70
  C13                  CONDUIT     1.777     0  02:38      1.57    0.10    0.77
  C18                  CONDUIT     1.500     0  02:40      3.36    0.06    0.58
  C23                  CONDUIT     2.907     0  02:42      2.14    0.32    0.72
  C4                   CONDUIT     1.403     0  02:40      3.06    0.34    0.71
  C7                   CONDUIT     0.427     0  02:40      1.44    0.10    0.61
  C14                  CONDUIT     0.271     0  02:00      2.08    0.02    0.09
  C5                   CONDUIT     0.081     0  01:42      1.59    1.39    1.00
  C8                   CONDUIT     0.127     0  02:25      1.80    1.60    0.86
  C15                  CONDUIT     0.487     0  02:03      3.48    1.55    0.83
  C21                  CONDUIT     0.202     0  02:19      1.84    1.16    0.69
  V4                   ORIFICE     0.028     0  02:55                      0.35
  V5                   ORIFICE     0.039     0  02:11                      1.00
  V1                   ORIFICE     0.271     0  01:58                      1.00
  V6                   ORIFICE     0.075     0  02:25                      0.43
  V3                   ORIFICE     0.124     0  03:10                      0.65
  V2                   ORIFICE     0.033     0  02:30                      0.24
  
  
  ***************************
  Flow Classification Summary
  ***************************
  
  -------------------------------------------------------------------------------------
                      Adjusted    ---------- Fraction of Time in Flow Class ---------- 
                       /Actual         Up    Down  Sub   Sup   Up    Down  Norm  Inlet 
  Conduit               Length    Dry  Dry   Dry   Crit  Crit  Crit  Crit  Ltd   Ctrl  
  -------------------------------------------------------------------------------------
  C1                      1.00   0.00  0.00  0.00  0.04  0.96  0.00  0.00  0.94  0.00
  C6                      1.00   0.00  0.00  0.00  0.22  0.78  0.00  0.00  0.00  0.00
  C2                      1.00   0.00  0.00  0.00  0.60  0.40  0.00  0.00  0.99  0.00
  C9                      1.00   0.00  0.00  0.00  1.00  0.00  0.00  0.00  1.00  0.00
  C16                     1.00   0.00  0.00  0.00  0.56  0.44  0.00  0.00  0.45  0.00
  C3                      1.00   0.00  0.01  0.00  0.05  0.94  0.00  0.00  0.52  0.00
  C19                     1.00   0.00  0.00  0.00  1.00  0.00  0.00  0.00  1.00  0.00
  C11                     1.00   0.00  0.00  0.00  0.35  0.65  0.00  0.00  1.00  0.00
  C20                     1.00   0.00  0.00  0.00  0.56  0.44  0.00  0.00  0.98  0.00
  C22                     1.00   0.00  0.00  0.00  0.79  0.21  0.00  0.00  1.00  0.00
  C12                     1.00   0.00  0.00  0.00  1.00  0.00  0.00  0.00  1.00  0.00
  C17                     1.00   0.00  0.00  0.00  0.65  0.35  0.00  0.00  0.90  0.00
  C10                     1.00   0.00  0.00  0.00  0.96  0.04  0.00  0.00  0.97  0.00
  C13                     1.00   0.00  0.00  0.00  0.82  0.18  0.00  0.00  0.24  0.00
  C18                     1.00   0.00  0.00  0.00  0.94  0.06  0.00  0.00  0.97  0.00
  C23                     1.00   0.00  0.00  0.00  0.86  0.14  0.00  0.00  0.93  0.00
  C4                      1.00   0.00  0.00  0.00  0.96  0.04  0.00  0.00  0.97  0.00
  C7                      1.00   0.00  0.00  0.00  0.94  0.06  0.00  0.00  0.97  0.00
  C14                     1.00   0.00  0.01  0.00  0.01  0.98  0.00  0.00  0.27  0.00
  C5                      1.00   0.00  0.00  0.00  0.92  0.08  0.00  0.00  0.78  0.00
  C8                      1.00   0.00  0.00  0.00  0.20  0.80  0.00  0.00  0.00  0.00
  C15                     1.00   0.00  0.00  0.00  0.00  1.00  0.00  0.00  0.00  0.00
  C21                     1.00   0.00  0.00  0.00  0.00  1.00  0.00  0.00  0.00  0.00
  
  
  *************************
  Conduit Surcharge Summary
  *************************
  
  ----------------------------------------------------------------------------
                                                           Hours        Hours 
                         --------- Hours Full --------   Above Full   Capacity
  Conduit                Both Ends  Upstream  Dnstream   Normal Flow   Limited
  ----------------------------------------------------------------------------
  C6                          0.01      1.57      0.01      1.50         0.01
  C9                          0.01      0.01      0.13      0.01         0.01
  C10                         0.01      0.01      6.17      0.01         0.01
  C13                         0.01      0.01      5.99      0.01         0.01
  C18                         0.01      0.01      6.10      0.01         0.01
  C23                         0.01      0.01      6.32      0.01         0.01
  C4                          0.01      0.01      6.40      0.01         0.01
  C7                          0.01      0.01      6.18      0.01         0.01
  C5                          1.57      1.58      1.67      1.61         1.55
  C8                          0.01      1.48      0.01      1.50         0.01
  C15                         0.01      1.28      0.01      1.34         0.01
  C21                         0.01      1.36      0.01      1.35         0.01
  

  Analysis begun on:  Sun Oct 20 16:54:48 2024
  Analysis ended on:  Sun Oct 20 16:54:48 2024
  Total elapsed time: < 1 sec