
  EPA STORM WATER MANAGEMENT MODEL - VERSION 5.2 (Build 5.2.4)
  PYSWMM TOOLKIT API - VERSION v1.0 (2023-11-27)
  ------------------------------------------------------------

  WARNING 04: minimum elevation drop used for Conduit WS02004404WS02004405
  WARNING 03: negative offset ignored for Link YS02001904YS02001907
  
  ****************
  Analysis Options
  ****************
  Flow Units ............... LPS
  Process Models:
    Rainfall/Runoff ........ YES
    RDII ................... NO
    Snowmelt ............... NO
    Groundwater ............ NO
    Flow Routing ........... YES
    Ponding Allowed ........ NO
    Water Quality .......... NO
  Infiltration Method ...... HORTON
  Flow Routing Method ...... DYNWAVE
  Surcharge Method ......... EXTRAN
  Starting Date ............ 08/28/2015 08:00:00
  Ending Date .............. 08/28/2015 16:00:00
  Antecedent Dry Days ...... 8.0
  Report Time Step ......... 00:01:00
  Wet Time Step ............ 00:01:00
  Dry Time Step ............ 00:01:00
  Routing Time Step ........ 30.00 sec
  Variable Time Step ....... YES
  Maximum Trials ........... 8
  Number of Threads ........ 4
  Head Tolerance ........... 0.001500 m
  
  
  **************************        Volume         Depth
  Runoff Quantity Continuity     hectare-m            mm
  **************************     ---------       -------
  Total Precipitation ......         1.505        45.382
  Evaporation Loss .........         0.000         0.000
  Infiltration Loss ........         0.092         2.788
  Surface Runoff ...........         1.380        41.615
  Final Storage ............         0.033         0.992
  Continuity Error (%) .....        -0.030
  
  
  **************************        Volume        Volume
  Flow Routing Continuity        hectare-m      10^6 ltr
  **************************     ---------     ---------
  Dry Weather Inflow .......         0.025         0.251
  Wet Weather Inflow .......         1.380        13.801
  Groundwater Inflow .......         0.000         0.000
  RDII Inflow ..............         0.000         0.000
  External Inflow ..........         0.083         0.834
  External Outflow .........         1.291        12.913
  Flooding Loss ............         0.251         2.508
  Evaporation Loss .........         0.000         0.000
  Exfiltration Loss ........         0.000         0.000
  Initial Stored Volume ....         0.243         2.431
  Final Stored Volume ......         0.197         1.972
  Continuity Error (%) .....        -0.440
  
  
  *************************
  Highest Continuity Errors
  *************************
  Node YS02001583 (-18.44%)
  Node YS02001884 (5.12%)
  Node YS02001774 (1.37%)
  
  
  ***************************
  Time-Step Critical Elements
  ***************************
  Link WS02006252WS02006251 (38.85%)
  Link WS02006238WS02006235 (22.25%)
  Link WS02004404WS02004405 (15.68%)
  Link WS02006235WS02006234 (8.31%)
  Link WS02003066WSF200 (3.63%)
  
  
  ********************************
  Highest Flow Instability Indexes
  ********************************
  Link WS02006113WS02006111 (52)
  Link WS02004404WS02004405 (23)
  Link WS02006111WS02006112 (22)
  Link WS02004403WS02004404 (20)
  Link WS02004405WS02004406 (19)
  
  
  *********************************
  Most Frequent Nonconverging Nodes
  *********************************
  Node CC-1 (10.95%)
  Node CC-2 (10.95%)
  Node JK-1 (10.95%)
  Node JK-2 (10.95%)
  Node WSC (10.95%)
  
  
  *************************
  Routing Time Step Summary
  *************************
  Minimum Time Step           :     0.00 sec
  Average Time Step           :     2.06 sec
  Maximum Time Step           :     7.04 sec
  % of Time in Steady State   :     0.00
  Average Iterations per Step :     2.95
  % of Steps Not Converging   :    10.95
  Time Step Frequencies       :
     30.000 - 13.228 sec      :     0.00 %
     13.228 -  5.833 sec      :     9.89 %
      5.833 -  2.572 sec      :    15.81 %
      2.572 -  1.134 sec      :    30.24 %
      1.134 -  0.500 sec      :    44.06 %
  
  
  ***************************
  Subcatchment Runoff Summary
  ***************************
  
  ------------------------------------------------------------------------------------------------------------------------------
                            Total      Total      Total      Total     Imperv       Perv      Total       Total     Peak  Runoff
                           Precip      Runon       Evap      Infil     Runoff     Runoff     Runoff      Runoff   Runoff   Coeff
  Subcatchment                 mm         mm         mm         mm         mm         mm         mm    10^6 ltr      LPS
  ------------------------------------------------------------------------------------------------------------------------------
  sub60                     45.38       0.00       0.00       1.72      38.73       3.73      42.46        0.56   363.55   0.936
  sub61                     45.38       0.00       0.00       2.48      36.54       5.24      41.77        0.77   497.94   0.920
  sub62                     45.38       0.00       0.00       1.15      40.47       2.49      42.95        1.18   694.96   0.946
  sub63                     45.38       0.00       0.00       4.53      31.25       8.64      39.89        0.91   531.64   0.879
  sub64                     45.38       0.00       0.00       2.30      37.37       4.51      41.88        1.01   544.40   0.923
  sub65                     45.38       0.00       0.00       1.99      38.23       3.91      42.15        1.16   603.16   0.929
  sub66                     45.38       0.00       0.00       5.51      31.15       7.65      38.80        1.81   744.04   0.855
  sub67                     45.38       0.00       0.00       1.11      40.51       2.52      43.03        0.80   566.97   0.948
  sub68                     45.38       0.00       0.00       2.05      37.84       4.30      42.15        1.16   711.18   0.929
  sub69                     45.38       0.00       0.00       1.78      38.47       5.03      43.50        1.61   821.73   0.958
  sub70                     45.38       0.00       0.00       5.81      29.79       9.62      39.41        1.14   424.01   0.868
  sub71                     45.38       0.00       0.00       1.17      40.43       2.46      42.89        1.12   592.47   0.945
  sub72                     45.38       0.00       0.00       1.04      40.81       2.14      42.95        0.59   278.07   0.946
  
  
  ******************
  Node Depth Summary
  ******************
  
  ---------------------------------------------------------------------------------
                                 Average  Maximum  Maximum  Time of Max    Reported
                                   Depth    Depth      HGL   Occurrence   Max Depth
  Node                 Type       Meters   Meters   Meters  days hr:min      Meters
  ---------------------------------------------------------------------------------
  WS02003060           JUNCTION     0.25     0.38     5.32     0  02:34        0.38
  WS02003066           JUNCTION     0.21     0.30     5.85     0  02:34        0.30
  WS02003067           JUNCTION     0.53     0.70     6.02     0  02:34        0.70
  WS02003069           JUNCTION     0.28     0.43     5.02     0  02:35        0.43
  WS02003072           JUNCTION     0.35     0.50     4.87     0  02:36        0.50
  WS02003073           JUNCTION     0.20     0.30     4.36     0  02:37        0.30
  WS02004401           JUNCTION     0.63     0.88     6.88     0  02:38        0.88
  WS02004402           JUNCTION     0.66     0.90     6.86     0  02:38        0.90
  WS02004403           JUNCTION     0.68     0.92     6.85     0  02:35        0.92
  WS02004404           JUNCTION     0.76     1.03     6.88     0  02:34        1.01
  WS02004405           JUNCTION     0.74     0.97     6.82     0  02:37        0.97
  WS02004406           JUNCTION     0.75     0.96     6.79     0  02:33        0.96
  WS02004407           JUNCTION     0.19     0.30     6.61     0  02:33        0.30
  WS02004409           JUNCTION     0.42     0.67     6.44     0  02:34        0.67
  WS02004410           JUNCTION     0.45     0.68     6.40     0  02:35        0.68
  WS02004411           JUNCTION     0.47     0.69     6.37     0  02:35        0.69
  WS02004412           JUNCTION     0.49     0.70     6.34     0  02:34        0.70
  WS02004413           JUNCTION     0.64     0.86     6.33     0  02:33        0.86
  WS02006109           JUNCTION     0.69     1.84     8.46     0  02:11        1.84
  WS02006110           JUNCTION     0.69     2.00     8.59     0  02:01        1.08
  WS02006111           JUNCTION     0.19     0.29     6.99     0  03:50        0.29
  WS02006112           JUNCTION     0.79     1.08     6.96     0  02:27        1.07
  WS02006113           JUNCTION     0.29     0.46     7.35     0  03:48        0.46
  WS02006115           JUNCTION     0.51     0.77     6.91     0  02:28        0.77
  WS02006116           JUNCTION     0.60     0.86     6.90     0  02:28        0.86
  WS02006228           JUNCTION     0.68     1.87     8.52     0  02:11        1.87
  WS02006229           JUNCTION     0.65     1.74     8.43     0  02:10        1.65
  WS02006230           JUNCTION     0.66     2.16     8.91     0  02:10        1.17
  WS02006231           JUNCTION     0.45     1.74     8.86     0  02:10        0.94
  WS02006232           JUNCTION     0.59     1.72     8.75     0  02:10        1.15
  WS02006234           JUNCTION     0.52     1.58     8.74     0  02:10        1.30
  WS02006235           JUNCTION     0.56     1.60     8.76     0  02:10        1.47
  WS02006238           JUNCTION     0.59     1.63     8.77     0  02:10        1.53
  WS02006239           JUNCTION     0.56     1.58     8.79     0  03:48        1.58
  WS02006240           JUNCTION     0.53     1.58     8.87     0  03:48        1.58
  WS02006242           JUNCTION     0.60     1.55     8.82     0  02:10        1.55
  WS02006243           JUNCTION     0.52     1.47     8.89     0  03:48        1.47
  WS02006245           JUNCTION     0.51     1.38     8.86     0  02:10        1.38
  WS02006247           JUNCTION     0.54     1.31     8.81     0  02:10        1.30
  WS02006248           JUNCTION     0.49     1.10     8.69     0  02:01        1.10
  WS02006249           JUNCTION     0.52     1.09     8.69     0  01:39        1.09
  WS02006251           JUNCTION     0.52     1.73     9.40     0  02:10        1.14
  WS02006252           JUNCTION     0.38     1.50     9.74     0  00:00        0.70
  WS02006256           JUNCTION     0.95     2.35     9.28     0  00:00        2.35
  WSF200               JUNCTION     0.18     0.29     5.52     0  02:34        0.29
  YS02001580           JUNCTION     0.07     1.05     9.59     0  01:37        0.77
  YS02001583           JUNCTION     0.10     1.14     9.64     0  01:37        0.82
  YS02001586           JUNCTION     0.16     1.13     9.30     0  01:36        1.13
  YS02001590           JUNCTION     0.24     1.40     9.26     0  01:37        1.37
  YS02001593           JUNCTION     0.18     1.36     9.22     0  01:37        1.29
  YS02001596           JUNCTION     0.24     1.70     9.12     0  01:37        1.66
  YS02001600           JUNCTION     0.29     1.87     9.00     0  01:36        1.86
  YS02001601           JUNCTION     0.47     2.06     8.90     0  01:36        2.06
  YS02001602           JUNCTION     0.39     1.87     8.77     0  01:37        1.87
  YS02001605           JUNCTION     0.36     1.78     8.68     0  01:37        1.78
  YS02001607           JUNCTION     0.37     1.68     8.53     0  01:37        1.68
  YS02001610           JUNCTION     0.42     1.68     8.48     0  01:37        1.68
  YS02001613           JUNCTION     0.37     1.70     8.54     0  01:37        1.64
  YS02001616           JUNCTION     0.30     1.61     8.52     0  01:37        1.61
  YS02001619           JUNCTION     0.28     1.61     8.54     0  01:37        1.59
  YS02001622           JUNCTION     0.27     1.58     8.48     0  01:37        1.56
  YS02001625           JUNCTION     0.54     1.78     8.38     0  01:37        1.78
  YS02001629           JUNCTION     0.38     1.85     8.40     0  01:37        1.85
  YS02001633           JUNCTION     0.46     2.07     8.53     0  01:40        2.07
  YS02001641           JUNCTION     0.45     2.04     8.47     0  01:52        1.94
  YS02001644           JUNCTION     0.44     1.92     8.35     0  01:39        1.88
  YS02001647           JUNCTION     0.23     1.84     8.45     0  01:41        1.61
  YS02001649           JUNCTION     0.27     1.99     8.38     0  01:41        1.74
  YS02001652           JUNCTION     0.17     2.10     8.70     0  01:41        1.56
  YS02001655           JUNCTION     0.13     2.20     9.05     0  01:41        1.35
  YS02001658           JUNCTION     0.09     2.30     9.44     0  01:41        1.08
  YS02001661           JUNCTION     0.12     0.84     8.25     0  01:41        0.84
  YS02001664           JUNCTION     0.04     0.28     8.20     0  01:40        0.28
  YS02001745           JUNCTION     0.04     0.56     8.08     0  01:41        0.55
  YS02001748           JUNCTION     0.08     1.02     8.10     0  01:41        0.95
  YS02001751           JUNCTION     0.10     2.20     9.08     0  01:40        1.12
  YS02001754           JUNCTION     0.15     2.20     8.81     0  01:40        1.38
  YS02001757           JUNCTION     0.29     2.00     8.26     0  01:40        1.74
  YS02001759           JUNCTION     0.24     1.91     8.27     0  01:39        1.73
  YS02001762           JUNCTION     0.23     2.13     8.53     0  01:39        1.75
  YS02001765           JUNCTION     0.21     2.10     8.55     0  01:39        1.72
  YS02001767           JUNCTION     0.21     1.97     8.46     0  01:39        1.69
  YS02001770           JUNCTION     0.22     1.95     8.44     0  01:40        1.73
  YS02001774           JUNCTION     0.28     2.03     8.45     0  01:40        1.83
  YS02001779           JUNCTION     0.13     1.68     8.37     0  01:39        1.57
  YS02001783           JUNCTION     0.20     1.35     7.49     0  01:38        1.28
  YS02001784           JUNCTION     0.22     1.22     7.28     0  01:38        1.15
  YS02001786           JUNCTION     0.18     0.93     6.96     0  01:38        0.90
  YS02001788           JUNCTION     0.13     0.62     6.60     0  01:45        0.62
  YS02001790           JUNCTION     0.15     0.72     6.36     0  01:45        0.71
  YS02001791           JUNCTION     0.10     0.44     5.91     0  01:43        0.43
  YS02001793           JUNCTION     0.05     0.29     5.12     0  01:45        0.26
  YS02001882           JUNCTION     0.26     1.72     8.43     0  01:38        1.62
  YS02001884           JUNCTION     0.36     1.80     8.42     0  01:38        1.73
  YS02001887           JUNCTION     0.43     1.85     8.39     0  01:38        1.85
  YS02001890           JUNCTION     0.46     1.81     8.32     0  01:38        1.81
  YS02001895           JUNCTION     0.23     1.75     8.50     0  01:38        1.75
  YS02001898           JUNCTION     0.24     1.77     8.51     0  01:38        1.77
  YS02001901           JUNCTION     0.36     1.87     8.48     0  01:38        1.87
  YS02001904           JUNCTION     0.34     1.78     8.41     0  01:38        1.74
  YS02001907           JUNCTION     0.66     1.96     8.25     0  01:38        1.96
  YS02001910           JUNCTION     0.46     1.98     8.49     0  01:38        1.83
  YS02001915           JUNCTION     0.26     2.00     8.72     0  01:38        1.69
  YS02001918           JUNCTION     0.13     1.81     8.88     0  01:39        1.39
  YS02001920           JUNCTION     0.21     2.14     9.15     0  01:39        1.48
  YS02001923           JUNCTION     0.10     2.03     9.29     0  01:39        1.26
  YS02001926           JUNCTION     0.14     1.90     9.35     0  01:39        1.09
  YS02001929           JUNCTION     0.07     1.78     9.47     0  01:39        0.87
  YS02006553           JUNCTION     0.67     2.00     8.29     0  01:38        1.98
  YS02006556           JUNCTION     0.64     2.01     8.33     0  01:38        1.97
  YS02006558           JUNCTION     0.68     2.07     8.33     0  01:38        2.02
  YS02006561           JUNCTION     0.13     1.06     7.72     0  01:38        0.95
  YS02163301           JUNCTION     0.40     1.95     8.47     0  01:40        1.95
  YS02163601           JUNCTION     0.50     2.08     8.48     0  01:40        2.08
  YS02164001           JUNCTION     0.43     2.06     8.52     0  01:52        1.99
  CC-1                 OUTFALL      0.00     0.00     0.00     0  00:00        0.00
  CC-2                 OUTFALL      0.00     0.00     0.00     0  00:00        0.00
  JK-1                 OUTFALL      0.00     0.00     0.00     0  00:00        0.00
  JK-2                 OUTFALL      0.00     0.00     0.00     0  00:00        0.00
  WSC                  OUTFALL      0.20     0.30     0.97     0  02:37        0.30
  CC-storage           STORAGE      0.82     1.46     6.96     0  02:06        1.46
  JK-storage           STORAGE      2.85     4.23     5.03     0  01:55        4.20
  
  
  *******************
  Node Inflow Summary
  *******************
  
  -------------------------------------------------------------------------------------------------
                                  Maximum  Maximum                  Lateral       Total        Flow
                                  Lateral    Total  Time of Max      Inflow      Inflow     Balance
                                   Inflow   Inflow   Occurrence      Volume      Volume       Error
  Node                 Type           LPS      LPS  days hr:min    10^6 ltr    10^6 ltr     Percent
  -------------------------------------------------------------------------------------------------
  WS02003060           JUNCTION     16.53   555.14     0  02:34       0.476        6.25       0.044
  WS02003066           JUNCTION      0.00   538.46     0  02:34           0        5.77       0.027
  WS02003067           JUNCTION      0.00   538.41     0  02:34           0        5.78       0.077
  WS02003069           JUNCTION      0.32   555.38     0  02:35     0.00922        6.25       0.074
  WS02003072           JUNCTION      0.00   555.25     0  02:36           0        6.25       0.123
  WS02003073           JUNCTION      1.82   557.03     0  02:36      0.0524         6.3       0.099
  WS02004401           JUNCTION      0.00   539.85     0  03:49           0        5.88       0.185
  WS02004402           JUNCTION      0.00   541.67     0  02:33           0        5.87       0.186
  WS02004403           JUNCTION      0.00   543.13     0  02:33           0        5.86       0.179
  WS02004404           JUNCTION      0.16   562.12     0  02:34     0.00467        5.86       0.146
  WS02004405           JUNCTION      0.04   603.05     0  02:37      0.0011        5.85       0.181
  WS02004406           JUNCTION      0.00   545.37     0  02:33           0        5.84       0.368
  WS02004407           JUNCTION      0.00   539.83     0  02:32           0        5.82       0.027
  WS02004409           JUNCTION      0.00   539.22     0  02:32           0        5.82       0.060
  WS02004410           JUNCTION      0.00   538.76     0  02:33           0        5.81       0.088
  WS02004411           JUNCTION      0.00   538.65     0  02:34           0        5.81       0.108
  WS02004412           JUNCTION      0.00   538.57     0  02:33           0         5.8       0.141
  WS02004413           JUNCTION      0.00   538.61     0  02:36           0        5.79       0.246
  WS02006109           JUNCTION      1.23   566.01     0  02:10      0.0354        5.93       0.144
  WS02006110           JUNCTION      0.00   567.91     0  03:48           0        5.92       0.118
  WS02006111           JUNCTION      0.00   562.11     0  03:49           0        5.92       0.014
  WS02006112           JUNCTION      0.00   544.78     0  03:50           0        5.91       0.308
  WS02006113           JUNCTION      0.00   582.03     0  02:11           0        5.92       0.040
  WS02006115           JUNCTION      0.00   565.62     0  03:48           0         5.9       0.123
  WS02006116           JUNCTION      0.00   548.50     0  03:49           0        5.89       0.073
  WS02006228           JUNCTION      0.00   564.37     0  02:10           0         5.9       0.046
  WS02006229           JUNCTION      0.00   564.63     0  02:10           0        5.91       0.085
  WS02006230           JUNCTION     10.28   589.07     0  02:01       0.296        5.91       0.039
  WS02006231           JUNCTION      0.00   573.85     0  01:55           0        5.61       0.045
  WS02006232           JUNCTION      0.00   573.14     0  01:55           0        5.63       0.199
  WS02006234           JUNCTION      0.00   568.85     0  02:01           0        5.62      -0.126
  WS02006235           JUNCTION      0.00   563.70     0  02:01           0        5.65       0.168
  WS02006238           JUNCTION      0.00   423.37     0  02:56           0        4.81      -0.192
  WS02006239           JUNCTION      0.00   422.68     0  02:56           0        4.79      -0.222
  WS02006240           JUNCTION      0.00   420.45     0  02:47           0        4.78      -0.024
  WS02006242           JUNCTION      0.00   420.57     0  02:47           0        4.78       0.014
  WS02006243           JUNCTION      0.00   420.24     0  02:47           0        4.76      -0.222
  WS02006245           JUNCTION      0.00   419.30     0  02:47           0        4.78       0.265
  WS02006247           JUNCTION      0.00   419.25     0  02:47           0        4.78      -0.021
  WS02006248           JUNCTION      0.00   421.42     0  01:42           0        4.78       0.018
  WS02006249           JUNCTION      0.00   489.67     0  04:40           0           5       0.182
  WS02006251           JUNCTION      0.08   407.15     0  02:10     0.00222        5.01       0.006
  WS02006252           JUNCTION      0.00   400.00     0  00:00           0        4.99      -0.194
  WS02006256           JUNCTION      0.00   300.00     0  00:00           0        1.23      -0.574
  WSF200               JUNCTION      0.00   538.49     0  02:34           0        5.77       0.010
  YS02001580           JUNCTION      0.00   266.02     0  01:37           0     0.00476      -1.157
  YS02001583           JUNCTION      0.00   289.08     0  01:37           0      0.0143     -15.567
  YS02001586           JUNCTION    424.01   424.14     0  01:43        1.14        1.15       0.145
  YS02001590           JUNCTION      0.00   317.89     0  01:47           0        1.06      -0.022
  YS02001593           JUNCTION      0.00   318.00     0  01:47           0        1.06       0.043
  YS02001596           JUNCTION      0.00   317.92     0  01:47           0        1.06       0.009
  YS02001600           JUNCTION      0.00   318.04     0  01:49           0        1.06       0.008
  YS02001601           JUNCTION    821.73  1139.24     0  01:41        1.61        2.67       0.031
  YS02001602           JUNCTION      0.00   595.23     0  01:37           0        1.92       0.021
  YS02001605           JUNCTION      0.00   595.38     0  01:37           0        1.84       0.028
  YS02001607           JUNCTION      0.00   595.05     0  01:37           0        1.84       0.076
  YS02001610           JUNCTION      0.00   565.17     0  01:37           0        1.84       0.117
  YS02001613           JUNCTION      0.00   534.13     0  01:37           0        1.63       0.095
  YS02001616           JUNCTION      0.00   488.28     0  01:37           0        1.63       0.009
  YS02001619           JUNCTION    744.04   924.88     0  01:37        1.81        3.44      -0.005
  YS02001622           JUNCTION      0.00   840.44     0  01:37           0        3.43      -0.006
  YS02001625           JUNCTION      0.00   840.19     0  02:05           0        3.44       0.257
  YS02001629           JUNCTION      0.00   840.31     0  02:05           0         3.1       0.017
  YS02001633           JUNCTION    603.36  1349.56     0  01:38        1.17        4.27       0.077
  YS02001641           JUNCTION      0.00  1347.09     0  01:38           0        4.27       0.060
  YS02001644           JUNCTION    544.44  1854.60     0  01:38        1.01        5.27       0.059
  YS02001647           JUNCTION      0.00  1856.10     0  01:38           0        5.25       0.003
  YS02001649           JUNCTION      0.00  2183.92     0  01:39           0        6.17       0.009
  YS02001652           JUNCTION      0.00   625.28     0  01:42           0        0.91      -0.279
  YS02001655           JUNCTION      0.15   767.16     0  01:39     0.00443        0.91      -0.007
  YS02001658           JUNCTION      0.00   720.66     0  01:47           0       0.905      -0.100
  YS02001661           JUNCTION      0.00   535.12     0  01:40           0       0.905       0.059
  YS02001664           JUNCTION    531.64   531.64     0  01:40       0.905       0.905      -0.011
  YS02001745           JUNCTION    363.56   363.56     0  01:39       0.558       0.558       0.289
  YS02001748           JUNCTION      0.04   597.81     0  01:40      0.0013       0.561      -0.362
  YS02001751           JUNCTION      0.01   494.68     0  01:40    0.000317       0.568       0.162
  YS02001754           JUNCTION      0.26   444.75     0  01:41     0.00749       0.577      -0.387
  YS02001757           JUNCTION      0.00  3328.05     0  01:42           0         8.7       0.069
  YS02001759           JUNCTION    497.98  1236.21     0  01:40       0.767        1.96      -0.021
  YS02001762           JUNCTION      0.00   737.43     0  01:40           0        1.19      -0.016
  YS02001765           JUNCTION      0.00   732.17     0  01:40           0        1.19       0.011
  YS02001767           JUNCTION      0.54   727.29     0  01:40      0.0154        1.19       0.007
  YS02001770           JUNCTION    695.11   721.91     0  01:40        1.18        1.22      -0.022
  YS02001774           JUNCTION      0.00   433.04     0  01:39           0       0.068       1.390
  YS02001779           JUNCTION      0.01   431.65     0  01:39    0.000144      0.0237      -2.641
  YS02001783           JUNCTION      0.00  1153.32     0  01:40           0         3.3       0.008
  YS02001784           JUNCTION      1.06  1154.49     0  01:39      0.0305        3.33       0.015
  YS02001786           JUNCTION      0.06  1155.00     0  01:39     0.00162        3.33       0.018
  YS02001788           JUNCTION      0.07  1157.98     0  01:39     0.00204        3.33       0.009
  YS02001790           JUNCTION      0.15  1165.15     0  01:42     0.00446        3.33       0.025
  YS02001791           JUNCTION      0.00  1269.65     0  01:45           0        3.33      -0.020
  YS02001793           JUNCTION      0.00  1226.81     0  01:42           0        3.33       0.009
  YS02001882           JUNCTION      0.00    71.40     0  01:37           0      0.0121       4.385
  YS02001884           JUNCTION      0.00   128.18     0  01:37           0      0.0474       5.394
  YS02001887           JUNCTION    567.42   573.15     0  01:38       0.813       0.846       0.523
  YS02001890           JUNCTION      0.00   577.15     0  01:38           0       0.806       0.636
  YS02001895           JUNCTION      0.00   580.49     0  01:38           0       0.797       0.195
  YS02001898           JUNCTION      0.00   583.29     0  01:38           0       0.795      -0.012
  YS02001901           JUNCTION      0.00   586.85     0  01:38           0       0.798       0.393
  YS02001904           JUNCTION      0.00   588.21     0  01:38           0       0.812       0.313
  YS02001907           JUNCTION      0.00  1559.07     0  01:40           0        2.61       0.681
  YS02001910           JUNCTION      0.00  1031.75     0  01:40           0         1.8       0.397
  YS02001915           JUNCTION    592.49  1031.67     0  01:40        1.12        1.86       0.054
  YS02001918           JUNCTION      0.00   688.36     0  01:38           0       0.769       0.037
  YS02001920           JUNCTION      2.87   633.99     0  01:38      0.0827       0.738       0.099
  YS02001923           JUNCTION      0.04   720.74     0  01:38     0.00109       0.635      -0.130
  YS02001926           JUNCTION      0.05  1101.69     0  01:39      0.0015       0.613      -0.510
  YS02001929           JUNCTION    278.07  1042.41     0  01:39        0.59       0.597      -0.457
  YS02006553           JUNCTION      0.00   791.73     0  01:54           0        2.17       0.543
  YS02006556           JUNCTION      0.00   792.03     0  01:54           0        2.18       0.357
  YS02006558           JUNCTION    712.06  1184.42     0  01:38        1.18        3.33       0.109
  YS02006561           JUNCTION      0.00  1183.06     0  01:38           0         3.3      -0.004
  YS02163301           JUNCTION      0.00   835.95     0  02:04           0         3.1       0.039
  YS02163601           JUNCTION      0.11  1349.45     0  01:38     0.00317        4.26       0.110
  YS02164001           JUNCTION      0.00  1348.15     0  01:38           0        4.26       0.049
  CC-1                 OUTFALL       0.00   683.00     0  00:00           0        2.77       0.000
  CC-2                 OUTFALL       0.00   683.00     0  00:00           0        1.79       0.000
  JK-1                 OUTFALL       0.00  1000.00     0  00:00           0         1.3       0.000
  JK-2                 OUTFALL       0.00  1000.00     0  00:00           0       0.762       0.000
  WSC                  OUTFALL       0.00   556.98     0  02:37           0        6.29       0.000
  CC-storage           STORAGE       0.00  3330.04     0  01:42           0        10.9      -0.288
  JK-storage           STORAGE       0.00  1252.04     0  01:50           0        3.48       0.182
  
  
  **********************
  Node Surcharge Summary
  **********************
  
  Surcharging occurs when water rises above the top of the highest conduit.
  ---------------------------------------------------------------------
                                               Max. Height   Min. Depth
                                   Hours       Above Crown    Below Rim
  Node                 Type      Surcharged         Meters       Meters
  ---------------------------------------------------------------------
  WS02004404           JUNCTION        0.03          0.031        2.749
  WS02006109           JUNCTION        2.11          1.024        0.796
  WS02006110           JUNCTION        0.75          1.091        0.759
  WS02006112           JUNCTION        0.84          0.077        1.603
  WS02006228           JUNCTION        2.10          1.042        1.158
  WS02006229           JUNCTION        2.11          0.938        1.512
  WS02006230           JUNCTION        0.77          1.085        0.485
  WS02006231           JUNCTION        0.86          1.030        0.500
  WS02006232           JUNCTION        2.22          1.016        0.464
  WS02006234           JUNCTION        1.14          0.860        0.380
  WS02006235           JUNCTION        2.10          0.888        0.402
  WS02006238           JUNCTION        2.16          0.905        0.525
  WS02006239           JUNCTION        2.10          0.845        0.445
  WS02006240           JUNCTION        2.12          0.866        0.524
  WS02006242           JUNCTION        2.28          0.820        0.000
  WS02006243           JUNCTION        2.14          0.758        0.012
  WS02006245           JUNCTION        2.14          0.668        0.182
  WS02006247           JUNCTION        2.16          0.596        0.164
  WS02006248           JUNCTION        2.12          0.380        0.000
  WS02006249           JUNCTION        2.14          0.390        0.000
  WS02006251           JUNCTION        0.91          0.695        0.485
  WS02006252           JUNCTION        2.99          1.100        0.000
  WS02006256           JUNCTION        6.96          2.050        0.000
  YS02001580           JUNCTION        0.41          0.450        0.000
  YS02001583           JUNCTION        0.42          0.500        0.000
  YS02001586           JUNCTION        0.57          0.510        0.000
  YS02001590           JUNCTION        0.63          0.750        0.000
  YS02001593           JUNCTION        0.63          0.737        0.103
  YS02001596           JUNCTION        0.72          0.971        0.099
  YS02001600           JUNCTION        0.83          1.190        0.000
  YS02001601           JUNCTION        1.19          1.440        0.000
  YS02001602           JUNCTION        1.06          1.270        0.000
  YS02001605           JUNCTION        1.01          1.180        0.000
  YS02001607           JUNCTION        0.59          0.680        0.000
  YS02001610           JUNCTION        0.61          0.680        0.000
  YS02001613           JUNCTION        0.59          0.700        0.000
  YS02001616           JUNCTION        0.55          0.610        0.000
  YS02001619           JUNCTION        0.54          0.610        0.000
  YS02001622           JUNCTION        0.53          0.578        0.042
  YS02001625           JUNCTION        0.69          0.780        0.000
  YS02001629           JUNCTION        0.48          0.470        0.000
  YS02001633           JUNCTION        0.70          1.053        0.007
  YS02001641           JUNCTION        0.65          1.036        0.064
  YS02001644           JUNCTION        0.62          0.920        0.000
  YS02001647           JUNCTION        0.43          0.836        0.064
  YS02001649           JUNCTION        0.54          0.991        0.059
  YS02001652           JUNCTION        0.35          1.069        0.061
  YS02001655           JUNCTION        0.16          1.200        0.000
  YS02001658           JUNCTION        0.02          1.300        0.000
  YS02001751           JUNCTION        0.04          1.200        0.000
  YS02001754           JUNCTION        0.22          1.150        0.000
  YS02001757           JUNCTION        0.59          1.004        0.206
  YS02001759           JUNCTION        0.49          0.910        0.300
  YS02001762           JUNCTION        0.46          1.126        0.024
  YS02001765           JUNCTION        0.41          1.100        0.000
  YS02001767           JUNCTION        0.38          0.971        0.059
  YS02001770           JUNCTION        0.36          0.920        0.000
  YS02001774           JUNCTION        0.44          1.029        0.021
  YS02001779           JUNCTION        0.23          0.680        0.000
  YS02001783           JUNCTION        0.42          0.549        1.051
  YS02001784           JUNCTION        0.40          0.415        1.075
  YS02001786           JUNCTION        0.31          0.125        1.305
  YS02001882           JUNCTION        0.37          0.716        0.114
  YS02001884           JUNCTION        0.38          0.741        0.129
  YS02001887           JUNCTION        0.41          0.802        0.148
  YS02001890           JUNCTION        0.42          0.760        0.000
  YS02001895           JUNCTION        0.36          0.750        0.000
  YS02001898           JUNCTION        0.35          0.740        0.000
  YS02001901           JUNCTION        0.40          0.870        0.000
  YS02001904           JUNCTION        0.39          0.780        0.070
  YS02001907           JUNCTION        0.57          0.950        0.000
  YS02001910           JUNCTION        0.44          0.984        0.116
  YS02001915           JUNCTION        0.37          1.000        0.000
  YS02001918           JUNCTION        0.29          0.810        0.000
  YS02001920           JUNCTION        0.30          1.140        0.000
  YS02001923           JUNCTION        0.01          0.820        0.000
  YS02001926           JUNCTION        0.02          0.900        0.000
  YS02001929           JUNCTION        0.01          0.780        0.000
  YS02006553           JUNCTION        0.59          1.001        0.189
  YS02006556           JUNCTION        0.51          0.974        0.376
  YS02006558           JUNCTION        0.50          0.967        0.433
  YS02006561           JUNCTION        0.25          0.264        0.886
  YS02163301           JUNCTION        0.69          0.950        0.080
  YS02163601           JUNCTION        0.73          1.080        0.000
  YS02164001           JUNCTION        0.66          1.058        0.042
  
  
  *********************
  Node Flooding Summary
  *********************
  
  Flooding refers to all water that overflows a node, whether it ponds or not.
  --------------------------------------------------------------------------
                                                             Total   Maximum
                                 Maximum   Time of Max       Flood    Ponded
                        Hours       Rate    Occurrence      Volume     Depth
  Node                 Flooded       LPS   days hr:min    10^6 ltr    Meters
  --------------------------------------------------------------------------
  WS02006242              0.01      4.46      0  02:10       0.000     0.000
  WS02006248              0.01     15.49      0  03:48       0.000     0.000
  WS02006249              0.89     99.62      0  03:48       0.218     0.000
  WS02006252              0.01    245.63      0  00:00       0.000     0.000
  WS02006256              1.14    293.19      0  00:00       0.400     0.000
  YS02001580              0.01    203.50      0  01:37       0.001     0.000
  YS02001583              0.01    191.02      0  01:37       0.001     0.000
  YS02001586              0.30    176.15      0  01:37       0.075     0.000
  YS02001590              0.01      2.67      0  01:37       0.000     0.000
  YS02001600              0.01      4.84      0  01:37       0.000     0.000
  YS02001601              0.50    741.41      0  01:41       0.751     0.000
  YS02001602              0.38     61.98      0  01:46       0.077     0.000
  YS02001605              0.01     15.18      0  01:37       0.000     0.000
  YS02001607              0.01    219.22      0  01:37       0.001     0.000
  YS02001610              0.33    257.54      0  01:43       0.210     0.000
  YS02001613              0.01    207.97      0  01:37       0.001     0.000
  YS02001616              0.01     71.86      0  01:37       0.001     0.000
  YS02001619              0.01     98.00      0  01:37       0.000     0.000
  YS02001625              0.30    715.77      0  01:42       0.328     0.000
  YS02001629              0.02    200.34      0  01:37       0.002     0.000
  YS02001644              0.01     32.94      0  01:41       0.000     0.000
  YS02001655              0.01     21.54      0  01:41       0.000     0.000
  YS02001658              0.01    144.46      0  01:41       0.000     0.000
  YS02001751              0.01    369.18      0  01:40       0.000     0.000
  YS02001754              0.01     92.67      0  01:40       0.000     0.000
  YS02001765              0.01     45.40      0  01:39       0.000     0.000
  YS02001770              0.01     13.88      0  01:40       0.000     0.000
  YS02001779              0.01    411.97      0  01:39       0.005     0.000
  YS02001890              0.04    198.70      0  01:38       0.004     0.000
  YS02001895              0.01     50.00      0  01:38       0.000     0.000
  YS02001898              0.01     89.79      0  01:38       0.000     0.000
  YS02001901              0.01     51.91      0  01:38       0.000     0.000
  YS02001907              0.23   1114.85      0  01:40       0.422     0.000
  YS02001915              0.01    205.87      0  01:38       0.000     0.000
  YS02001918              0.01    219.65      0  01:39       0.003     0.000
  YS02001920              0.01     54.86      0  01:39       0.000     0.000
  YS02001923              0.01    243.95      0  01:39       0.001     0.000
  YS02001926              0.01    317.93      0  01:39       0.003     0.000
  YS02001929              0.01    854.16      0  01:39       0.003     0.000
  YS02163601              0.01     13.98      0  01:52       0.000     0.000
  
  
  **********************
  Storage Volume Summary
  **********************
  
  ------------------------------------------------------------------------------------------------
                         Average    Avg   Evap  Exfil     Maximum    Max    Time of Max    Maximum
                          Volume   Pcnt   Pcnt   Pcnt      Volume   Pcnt     Occurrence    Outflow
  Storage Unit           1000 m³   Full   Loss   Loss     1000 m³   Full    days hr:min        LPS
  ------------------------------------------------------------------------------------------------
  CC-storage               2.298   35.8    0.0    0.0       4.079   63.6       0  02:06    1783.53
  JK-storage               0.143   49.2    0.0    0.0       0.213   72.9       0  01:55    2300.00
  
  
  ***********************
  Outfall Loading Summary
  ***********************
  
  -----------------------------------------------------------
                         Flow       Avg       Max       Total
                         Freq      Flow      Flow      Volume
  Outfall Node           Pcnt       LPS       LPS    10^6 ltr
  -----------------------------------------------------------
  CC-1                  15.94    683.00    683.00       2.770
  CC-2                  10.69    683.00    683.00       1.793
  JK-1                   6.05   1000.00   1000.00       1.300
  JK-2                   4.24   1000.00   1000.00       0.762
  WSC                   99.96    285.86    556.98       6.289
  -----------------------------------------------------------
  System                27.37   3651.86   3906.32      12.913
  
  
  ********************
  Link Flow Summary
  ********************
  
  -----------------------------------------------------------------------------
                                 Maximum  Time of Max   Maximum    Max/    Max/
                                  |Flow|   Occurrence   |Veloc|    Full    Full
  Link                 Type          LPS  days hr:min     m/sec    Flow   Depth
  -----------------------------------------------------------------------------
  1                    CONDUIT    556.98     0  02:37      2.83    0.19    0.30
  WS02003060WS02003069 CONDUIT    555.06     0  02:35      1.64    0.22    0.34
  WS02003066WSF200     CONDUIT    538.49     0  02:34      2.85    0.09    0.22
  WS02003067WS02003066 CONDUIT    538.46     0  02:34      1.21    0.17    0.42
  WS02003069WS02003072 CONDUIT    555.25     0  02:36      1.37    0.27    0.39
  WS02003072WS02003073 CONDUIT    555.21     0  02:36      1.44    1.20    0.37
  WS02004401WS02004402 CONDUIT    541.67     0  02:33      0.98    0.65    0.89
  WS02004402WS02004403 CONDUIT    543.13     0  02:33      0.97    0.78    0.91
  WS02004403WS02004404 CONDUIT    561.96     0  02:34      0.92    0.41    0.96
  WS02004404WS02004405 CONDUIT    603.01     0  02:37      1.08    5.91    0.98
  WS02004405WS02004406 CONDUIT    545.37     0  02:33      0.99    1.08    0.96
  WS02004406WS02004407 CONDUIT    539.83     0  02:32      1.04    0.24    0.63
  WS02004407WS02004409 CONDUIT    539.22     0  02:32      1.60    0.19    0.48
  WS02004409WS02004410 CONDUIT    538.76     0  02:33      1.01    0.70    0.68
  WS02004410WS02004411 CONDUIT    538.65     0  02:34      0.94    0.74    0.69
  WS02004411WS02004412 CONDUIT    538.57     0  02:33      0.92    0.77    0.70
  WS02004412WS02004413 CONDUIT    538.61     0  02:36      0.82    0.36    0.78
  WS02004413WS02003067 CONDUIT    538.41     0  02:34      1.11    0.23    0.59
  WS02006109WS02006110 CONDUIT    567.91     0  03:48      1.13    1.09    1.00
  WS02006110WS02006113 CONDUIT    582.03     0  02:11      1.41    0.53    0.79
  WS02006111WS02006112 CONDUIT    544.78     0  03:50      1.81    0.26    0.67
  WS02006112WS02006115 CONDUIT    565.62     0  03:48      0.80    0.33    0.88
  WS02006113WS02006111 CONDUIT    562.11     0  03:49      2.47    0.67    0.46
  WS02006115WS02006116 CONDUIT    548.50     0  03:49      1.04    0.70    0.78
  WS02006116WS02004401 CONDUIT    539.85     0  03:49      0.98    0.74    0.87
  WS02006228WS02006109 CONDUIT    564.78     0  02:10      1.12    2.47    1.00
  WS02006229WS02006228 CONDUIT    564.37     0  02:10      1.14    1.87    1.00
  WS02006230WS02006229 CONDUIT    564.63     0  02:10      1.47   12.57    1.00
  WS02006231WS02006230 CONDUIT    578.79     0  02:01      1.58    8.78    1.00
  WS02006232WS02006231 CONDUIT    573.85     0  01:55      1.50    1.20    1.00
  WS02006234WS02006232 CONDUIT    573.14     0  01:55      1.49    1.16    1.00
  WS02006235WS02006234 CONDUIT    568.85     0  02:01      1.48    6.00    1.00
  WS02006238WS02006235 CONDUIT    424.88     0  02:56      1.45    0.95    1.00
  WS02006239WS02006238 CONDUIT    423.37     0  02:56      1.10    1.35    1.00
  WS02006240WS02006239 CONDUIT    422.68     0  02:56      1.24    1.33    1.00
  WS02006242WS02006240 CONDUIT    420.45     0  02:47      1.13    1.67    1.00
  WS02006243WS02006242 CONDUIT    420.57     0  02:47      1.40    0.90    1.00
  WS02006245WS02006243 CONDUIT    420.24     0  02:47      1.45    1.24    1.00
  WS02006247WS02006245 CONDUIT    419.30     0  02:47      1.43    3.32    1.00
  WS02006248WS02006247 CONDUIT    419.25     0  02:47      1.44    0.91    1.00
  WS02006249WS02006248 CONDUIT    421.42     0  01:42      1.36    2.31    1.00
  WS02006251WS02006249 CONDUIT    489.67     0  04:40      1.99    1.41    1.00
  WS02006252WS02006251 CONDUIT    407.08     0  02:10     24.61    1.49    1.00
  WS02006256WS02006235 CONDUIT    288.91     0  00:00      4.23    3.06    1.00
  WSF200WS02003060     CONDUIT    538.62     0  02:34      2.06    0.12    0.28
  YS02001580YS02001583 CONDUIT    266.02     0  01:37      1.10    1.03    1.00
  YS02001583YS02001586 CONDUIT    263.58     0  01:36      1.17    0.40    1.00
  YS02001586YS02001590 CONDUIT    317.89     0  01:47      1.34    0.56    1.00
  YS02001590YS02001593 CONDUIT    318.00     0  01:47      1.12    2.00    1.00
  YS02001593YS02001596 CONDUIT    317.92     0  01:47      1.72    0.50    1.00
  YS02001596YS02001600 CONDUIT    318.04     0  01:49      1.19    0.62    1.00
  YS02001600YS02001601 CONDUIT    318.10     0  01:48      1.13    0.55    1.00
  YS02001601YS02001602 CONDUIT    595.23     0  01:37      2.11    2.15    1.00
  YS02001602YS02001605 CONDUIT    595.38     0  01:37      2.11   12.60    1.00
  YS02001605YS02001607 CONDUIT    595.05     0  01:37      2.10    3.26    1.00
  YS02001607YS02001610 CONDUIT    565.17     0  01:37      0.77    0.54    1.00
  YS02001610YS02001613 CONDUIT    534.13     0  01:37      0.72    0.62    1.00
  YS02001613YS02001616 CONDUIT    488.28     0  01:37      0.70    0.42    1.00
  YS02001616YS02001619 CONDUIT    480.20     0  02:07      0.66    0.83    1.00
  YS02001619YS02001622 CONDUIT    840.44     0  01:37      1.43    1.24    1.00
  YS02001622YS02001625 CONDUIT    840.19     0  02:05      1.07    0.45    1.00
  YS02001625YS02001629 CONDUIT    840.31     0  02:05      1.07    0.40    1.00
  YS02001629YS02163301 CONDUIT    835.95     0  02:04      1.06    1.03    1.00
  YS02001633YS02163601 CONDUIT   1349.34     0  01:38      1.72    1.42    1.00
  YS02001641YS02001644 CONDUIT   1348.04     0  01:38      1.72    4.36    1.00
  YS02001644YS02001647 CONDUIT   1856.10     0  01:38      2.36    1.09    1.00
  YS02001647YS02001649 CONDUIT   1859.93     0  01:38      2.37    0.98    1.00
  YS02001649YS02001757 CONDUIT   2184.41     0  01:39      2.78    1.33    1.00
  YS02001652YS02001649 CONDUIT    625.52     0  01:42      0.97    0.31    1.00
  YS02001655YS02001652 CONDUIT    625.28     0  01:42      1.77    0.30    1.00
  YS02001658YS02001655 CONDUIT    767.01     0  01:39      2.14    0.33    1.00
  YS02001661YS02001658 CONDUIT    720.66     0  01:47      2.44    0.28    0.89
  YS02001664YS02001661 CONDUIT    535.12     0  01:40      2.37    0.17    0.56
  YS02001745YS02001748 CONDUIT    567.28     0  01:42      2.33    0.22    0.68
  YS02001748YS02001751 CONDUIT    493.64     0  01:43      1.94    0.25    1.00
  YS02001751YS02001754 CONDUIT    444.49     0  01:41      1.80    0.21    1.00
  YS02001754YS02001757 CONDUIT    444.92     0  01:41      0.74    0.18    1.00
  YS02001757CaochengTiaoxuchi CONDUIT   3330.04     0  01:42      4.47    1.44    1.00
  YS02001759YS02001757 CONDUIT   1239.02     0  01:40      1.58    0.88    1.00
  YS02001762YS02001759 CONDUIT    741.95     0  01:40      0.94    0.85    1.00
  YS02001765YS02001762 CONDUIT    737.43     0  01:40      0.94    0.69    1.00
  YS02001767YS02001765 CONDUIT    732.17     0  01:40      0.93    0.92    1.00
  YS02001770YS02001767 CONDUIT    726.75     0  01:40      1.01    2.88    1.00
  YS02001774YS02001770 CONDUIT    433.04     0  01:39      0.55    0.28    1.00
  YS02001779YS02001774 CONDUIT    431.65     0  01:39      0.55    0.22    1.00
  YS02001783YS02001784 CONDUIT   1153.43     0  01:39      2.29    1.59    1.00
  YS02001784YS02001785 CONDUIT   1154.94     0  01:39      2.30    2.69    1.00
  YS02001786YS02001788 CONDUIT   1157.91     0  01:39      2.48    2.23    0.89
  YS02001788YS02001790 CONDUIT   1164.99     0  01:42      2.71    0.86    0.83
  YS02001790YS02001791 CONDUIT   1269.65     0  01:45      3.41    1.38    0.70
  YS02001791YS02001793 CONDUIT   1226.81     0  01:42      6.76    0.53    0.44
  YS02001793JiankangQianchi CONDUIT   1252.04     0  01:50      2.51    0.10    0.65
  YS02001882YS02001884 CONDUIT     71.40     0  01:37      0.14    0.08    1.00
  YS02001884YS02001887 CONDUIT    128.18     0  01:37      0.17    0.17    1.00
  YS02001887YS02001890 CONDUIT    577.15     0  01:38      0.73    0.99    1.00
  YS02001890YS02001895 CONDUIT    580.49     0  01:38      0.74    0.27    1.00
  YS02001895YS02001898 CONDUIT    583.29     0  01:38      0.74    1.01    1.00
  YS02001898YS02001901 CONDUIT    586.85     0  01:38      0.75    0.38    1.00
  YS02001901YS02001904 CONDUIT    588.21     0  01:38      0.75    0.91    1.00
  YS02001904YS02001907 CONDUIT    590.08     0  01:38      0.75    0.21    1.00
  YS02001907YS02006553 CONDUIT    791.73     0  01:54      0.88    0.93    1.00
  YS02001910YS02001907 CONDUIT   1031.83     0  01:40      1.31    0.58    1.00
  YS02001915YS02001910 CONDUIT   1031.75     0  01:40      1.31    0.51    1.00
  YS02001918YS02001915 CONDUIT    688.36     0  01:38      0.92    0.38    1.00
  YS02001920YS02001918 CONDUIT    631.12     0  01:38      0.81    0.61    1.00
  YS02001923YS02001920 CONDUIT    623.08     0  01:38      0.89    0.28    1.00
  YS02001926YS02001923 CONDUIT    881.40     0  01:39      1.34    1.26    1.00
  YS02001929YS02001926 CONDUIT    789.38     0  01:39      1.20    0.37    1.00
  YS02006553YS02006556 CONDUIT    792.03     0  01:54      1.01    0.68    1.00
  YS02006556YS02006558 CONDUIT    793.20     0  01:54      1.01    0.63    1.00
  YS02006558YS02006561 CONDUIT   1183.06     0  01:38      4.18    2.61    1.00
  YS02006561YS02001783 CONDUIT   1153.32     0  01:40      2.29    0.60    1.00
  YS02163301YS02001633 CONDUIT    837.50     0  02:04      1.07    0.79    1.00
  YS02163601YS02164001 CONDUIT   1348.15     0  01:38      1.72    1.19    1.00
  YS02164001YS02001641 CONDUIT   1347.09     0  01:38      1.72    1.84    1.00
  CC-R1                PUMP       683.00     0  00:00              1.00
  CC-R2                PUMP       683.00     0  00:00              1.00
  CC-S1                PUMP       200.00     0  00:00              1.00
  CC-S2                PUMP       200.00     0  00:00              1.00
  JK-R1                PUMP      1000.00     0  00:00              1.00
  JK-R2                PUMP      1000.00     0  00:00              1.00
  JK-S                 PUMP       300.00     0  00:00              1.00
  
  
  ***************************
  Flow Classification Summary
  ***************************
  
  -------------------------------------------------------------------------------------
                      Adjusted    ---------- Fraction of Time in Flow Class ---------- 
                       /Actual         Up    Down  Sub   Sup   Up    Down  Norm  Inlet 
  Conduit               Length    Dry  Dry   Dry   Crit  Crit  Crit  Crit  Ltd   Ctrl  
  -------------------------------------------------------------------------------------
  1                       1.00   0.00  0.00  0.00  0.00  1.00  0.00  0.00  0.41  0.00
  WS02003060WS02003069    1.00   0.00  0.00  0.00  0.98  0.02  0.00  0.00  0.60  0.00
  WS02003066WSF200        1.00   0.13  0.00  0.00  0.00  0.87  0.00  0.00  0.76  0.00
  WS02003067WS02003066    1.00   0.10  0.02  0.00  0.88  0.00  0.00  0.00  0.00  0.00
  WS02003069WS02003072    1.00   0.00  0.00  0.00  0.99  0.01  0.00  0.00  0.69  0.00
  WS02003072WS02003073    1.00   0.00  0.00  0.00  0.00  0.00  0.00  1.00  0.00  0.00
  WS02004401WS02004402    1.00   0.02  0.00  0.00  0.98  0.00  0.00  0.00  0.00  0.00
  WS02004402WS02004403    1.00   0.02  0.00  0.00  0.97  0.00  0.00  0.00  0.00  0.00
  WS02004403WS02004404    1.00   0.00  0.03  0.00  0.97  0.00  0.00  0.00  0.00  0.00
  WS02004404WS02004405    1.00   0.00  0.00  0.00  1.00  0.00  0.00  0.00  0.01  0.00
  WS02004405WS02004406    1.00   0.00  0.00  0.00  1.00  0.00  0.00  0.00  0.00  0.00
  WS02004406WS02004407    1.00   0.00  0.05  0.00  0.95  0.00  0.00  0.00  0.00  0.00
  WS02004407WS02004409    1.00   0.05  0.00  0.00  0.94  0.01  0.00  0.00  0.94  0.00
  WS02004409WS02004410    1.00   0.05  0.00  0.00  0.95  0.00  0.00  0.00  0.03  0.00
  WS02004410WS02004411    1.00   0.05  0.00  0.00  0.95  0.00  0.00  0.00  0.01  0.00
  WS02004411WS02004412    1.00   0.05  0.00  0.00  0.95  0.00  0.00  0.00  0.00  0.00
  WS02004412WS02004413    1.00   0.05  0.00  0.00  0.94  0.00  0.00  0.00  0.01  0.00
  WS02004413WS02003067    1.00   0.06  0.04  0.00  0.00  0.00  0.90  0.00  0.00  0.00
  WS02006109WS02006110    1.00   0.00  0.01  0.00  0.98  0.00  0.01  0.00  0.00  0.00
  WS02006110WS02006113    1.00   0.01  0.01  0.00  0.98  0.00  0.00  0.00  0.00  0.00
  WS02006111WS02006112    1.00   0.02  0.00  0.00  0.98  0.00  0.00  0.00  0.98  0.00
  WS02006112WS02006115    1.00   0.02  0.00  0.00  0.97  0.00  0.00  0.00  0.00  0.00
  WS02006113WS02006111    1.00   0.02  0.00  0.00  0.00  0.98  0.00  0.00  0.16  0.00
  WS02006115WS02006116    1.00   0.02  0.00  0.00  0.97  0.00  0.00  0.01  0.00  0.00
  WS02006116WS02004401    1.00   0.02  0.00  0.00  0.98  0.00  0.00  0.00  0.00  0.00
  WS02006228WS02006109    1.00   0.00  0.00  0.00  1.00  0.00  0.00  0.00  0.00  0.00
  WS02006229WS02006228    1.00   0.00  0.00  0.00  0.99  0.00  0.00  0.01  0.00  0.00
  WS02006230WS02006229    1.00   0.00  0.00  0.00  0.99  0.00  0.00  0.01  0.00  0.00
  WS02006231WS02006230    1.00   0.00  0.00  0.00  0.34  0.00  0.66  0.00  0.00  0.00
  WS02006232WS02006231    1.00   0.00  0.00  0.00  0.99  0.00  0.01  0.00  0.00  0.00
  WS02006234WS02006232    1.00   0.00  0.00  0.00  1.00  0.00  0.00  0.00  0.08  0.00
  WS02006235WS02006234    1.00   0.00  0.00  0.00  0.86  0.00  0.14  0.00  0.00  0.00
  WS02006238WS02006235    1.00   0.00  0.00  0.00  1.00  0.00  0.00  0.00  0.00  0.00
  WS02006239WS02006238    1.00   0.00  0.00  0.00  1.00  0.00  0.00  0.00  0.14  0.00
  WS02006240WS02006239    1.00   0.00  0.00  0.00  0.60  0.00  0.00  0.40  0.01  0.00
  WS02006242WS02006240    1.00   0.00  0.00  0.00  0.99  0.00  0.01  0.00  0.00  0.00
  WS02006243WS02006242    1.00   0.00  0.00  0.00  0.99  0.00  0.00  0.01  0.47  0.00
  WS02006245WS02006243    1.00   0.00  0.00  0.00  0.81  0.00  0.00  0.19  0.00  0.00
  WS02006247WS02006245    1.00   0.00  0.00  0.00  0.98  0.00  0.00  0.02  0.00  0.00
  WS02006248WS02006247    1.00   0.00  0.00  0.00  0.99  0.00  0.00  0.01  0.34  0.00
  WS02006249WS02006248    1.00   0.00  0.00  0.00  0.55  0.00  0.45  0.00  0.00  0.00
  WS02006251WS02006249    1.00   0.00  0.00  0.00  1.00  0.00  0.00  0.00  0.44  0.00
  WS02006252WS02006251    1.00   0.00  0.38  0.00  0.11  0.00  0.51  0.00  0.00  0.00
  WS02006256WS02006235    1.00   0.00  0.00  0.00  1.00  0.00  0.00  0.00  0.00  0.00
  WSF200WS02003060        1.00   0.00  0.13  0.00  0.32  0.55  0.00  0.00  0.40  0.00
  YS02001580YS02001583    1.00   0.20  0.63  0.00  0.17  0.00  0.00  0.00  0.72  0.00
  YS02001583YS02001586    1.00   0.45  0.32  0.00  0.23  0.00  0.00  0.00  0.72  0.00
  YS02001586YS02001590    1.00   0.13  0.00  0.00  0.38  0.04  0.00  0.45  0.33  0.00
  YS02001590YS02001593    1.00   0.13  0.01  0.00  0.09  0.00  0.77  0.00  0.00  0.00
  YS02001593YS02001596    1.00   0.14  0.00  0.00  0.10  0.01  0.00  0.75  0.02  0.00
  YS02001596YS02001600    1.00   0.14  0.00  0.00  0.17  0.02  0.00  0.67  0.06  0.00
  YS02001600YS02001601    1.00   0.13  0.01  0.00  0.86  0.00  0.00  0.00  0.63  0.00
  YS02001601YS02001602    1.00   0.13  0.01  0.00  0.86  0.00  0.00  0.00  0.00  0.00
  YS02001602YS02001605    1.00   0.14  0.00  0.00  0.86  0.00  0.00  0.00  0.00  0.00
  YS02001605YS02001607    1.00   0.14  0.00  0.00  0.86  0.00  0.00  0.00  0.00  0.00
  YS02001607YS02001610    1.00   0.13  0.01  0.00  0.86  0.00  0.00  0.00  0.02  0.00
  YS02001610YS02001613    1.00   0.13  0.00  0.00  0.87  0.00  0.00  0.00  0.01  0.00
  YS02001613YS02001616    1.00   0.13  0.00  0.00  0.87  0.00  0.00  0.00  0.01  0.00
  YS02001616YS02001619    1.00   0.13  0.00  0.00  0.87  0.00  0.00  0.00  0.00  0.00
  YS02001619YS02001622    1.00   0.13  0.00  0.00  0.87  0.00  0.00  0.00  0.31  0.00
  YS02001622YS02001625    1.00   0.13  0.00  0.00  0.87  0.00  0.00  0.00  0.05  0.00
  YS02001625YS02001629    1.00   0.13  0.05  0.00  0.13  0.00  0.69  0.00  0.00  0.00
  YS02001629YS02163301    1.00   0.16  0.01  0.00  0.83  0.00  0.00  0.00  0.00  0.00
  YS02001633YS02163601    1.00   0.00  0.01  0.00  0.99  0.00  0.00  0.00  0.15  0.00
  YS02001641YS02001644    1.00   0.00  0.01  0.00  0.99  0.00  0.00  0.00  0.00  0.00
  YS02001644YS02001647    1.00   0.00  0.18  0.00  0.82  0.00  0.00  0.00  0.00  0.00
  YS02001647YS02001649    1.00   0.00  0.18  0.00  0.55  0.28  0.00  0.00  0.57  0.00
  YS02001649YS02001757    1.00   0.00  0.00  0.00  0.87  0.13  0.00  0.00  0.42  0.00
  YS02001652YS02001649    1.00   0.00  0.00  0.00  0.96  0.04  0.00  0.00  0.73  0.00
  YS02001655YS02001652    1.00   0.00  0.00  0.00  0.16  0.03  0.00  0.81  0.09  0.00
  YS02001658YS02001655    1.00   0.00  0.15  0.00  0.64  0.22  0.00  0.00  0.73  0.00
  YS02001661YS02001658    1.00   0.15  0.00  0.00  0.48  0.38  0.00  0.00  0.76  0.00
  YS02001664YS02001661    1.00   0.13  0.00  0.00  0.77  0.10  0.00  0.00  0.86  0.00
  YS02001745YS02001748    1.00   0.00  0.00  0.00  0.06  0.01  0.00  0.93  0.06  0.00
  YS02001748YS02001751    1.00   0.00  0.00  0.00  0.81  0.19  0.00  0.00  0.80  0.00
  YS02001751YS02001754    1.00   0.00  0.00  0.00  0.13  0.00  0.00  0.87  0.03  0.00
  YS02001754YS02001757    1.00   0.00  0.00  0.00  1.00  0.00  0.00  0.00  0.81  0.00
  YS02001757CaochengTiaoxuchi    1.00   0.00  0.00  0.00  0.98  0.02  0.00  0.00  0.66  0.00
  YS02001759YS02001757    1.00   0.00  0.00  0.00  1.00  0.00  0.00  0.00  0.56  0.00
  YS02001762YS02001759    1.00   0.00  0.00  0.00  1.00  0.00  0.00  0.00  0.05  0.00
  YS02001765YS02001762    1.00   0.00  0.00  0.00  1.00  0.00  0.00  0.00  0.69  0.00
  YS02001767YS02001765    1.00   0.00  0.00  0.00  1.00  0.00  0.00  0.00  0.01  0.00
  YS02001770YS02001767    1.00   0.00  0.00  0.00  1.00  0.00  0.00  0.00  0.00  0.00
  YS02001774YS02001770    1.00   0.00  0.14  0.00  0.68  0.00  0.18  0.00  0.03  0.00
  YS02001779YS02001774    1.00   0.00  0.00  0.00  1.00  0.00  0.00  0.00  0.80  0.00
  YS02001783YS02001784    1.00   0.00  0.18  0.00  0.82  0.00  0.00  0.00  0.57  0.00
  YS02001784YS02001785    1.00   0.00  0.00  0.00  1.00  0.00  0.00  0.00  0.17  0.00
  YS02001786YS02001788    1.00   0.00  0.00  0.00  0.79  0.21  0.00  0.00  0.00  0.00
  YS02001788YS02001790    1.00   0.00  0.00  0.00  0.20  0.80  0.00  0.00  0.85  0.00
  YS02001790YS02001791    1.00   0.00  0.00  0.00  0.01  0.99  0.00  0.00  0.16  0.00
  YS02001791YS02001793    1.00   0.00  0.00  0.00  0.00  1.00  0.00  0.00  0.00  0.00
  YS02001793JiankangQianchi    1.00   0.00  0.00  0.00  0.98  0.02  0.00  0.00  0.98  0.00
  YS02001882YS02001884    1.00   0.16  0.01  0.00  0.83  0.00  0.00  0.00  0.00  0.00
  YS02001884YS02001887    1.00   0.06  0.05  0.00  0.89  0.00  0.00  0.00  0.00  0.00
  YS02001887YS02001890    1.00   0.00  0.00  0.00  0.97  0.00  0.03  0.00  0.00  0.00
  YS02001890YS02001895    1.00   0.00  0.17  0.00  0.83  0.00  0.00  0.00  0.00  0.00
  YS02001895YS02001898    1.00   0.17  0.00  0.00  0.82  0.00  0.01  0.00  0.00  0.00
  YS02001898YS02001901    1.00   0.17  0.00  0.00  0.83  0.00  0.00  0.00  0.01  0.00
  YS02001901YS02001904    1.00   0.17  0.00  0.00  0.83  0.00  0.00  0.00  0.00  0.00
  YS02001904YS02001907    1.00   0.00  0.17  0.00  0.83  0.00  0.00  0.00  0.00  0.00
  YS02001907YS02006553    1.00   0.00  0.02  0.00  0.98  0.00  0.00  0.00  0.00  0.00
  YS02001910YS02001907    1.00   0.00  0.00  0.00  0.97  0.00  0.00  0.03  0.12  0.00
  YS02001915YS02001910    1.00   0.00  0.00  0.00  0.96  0.04  0.00  0.00  0.16  0.00
  YS02001918YS02001915    1.00   0.00  0.01  0.00  0.98  0.02  0.00  0.00  0.77  0.00
  YS02001920YS02001918    1.00   0.00  0.01  0.00  0.99  0.00  0.00  0.00  0.00  0.00
  YS02001923YS02001920    1.00   0.00  0.00  0.00  1.00  0.00  0.00  0.00  0.94  0.00
  YS02001926YS02001923    1.00   0.00  0.07  0.00  0.05  0.00  0.88  0.00  0.00  0.00
  YS02001929YS02001926    1.00   0.00  0.13  0.00  0.87  0.00  0.00  0.00  0.83  0.00
  YS02006553YS02006556    1.00   0.01  0.00  0.00  0.99  0.00  0.00  0.00  0.03  0.00
  YS02006556YS02006558    1.00   0.00  0.00  0.00  1.00  0.00  0.00  0.00  0.00  0.00
  YS02006558YS02006561    1.00   0.18  0.00  0.00  0.04  0.78  0.00  0.00  0.20  0.00
  YS02006561YS02001783    1.00   0.18  0.00  0.00  0.07  0.75  0.00  0.00  0.71  0.00
  YS02163301YS02001633    1.00   0.00  0.16  0.00  0.84  0.00  0.00  0.00  0.00  0.00
  YS02163601YS02164001    1.00   0.00  0.08  0.00  0.92  0.00  0.00  0.00  0.00  0.00
  YS02164001YS02001641    1.00   0.01  0.07  0.00  0.92  0.00  0.00  0.00  0.06  0.00
  
  
  *************************
  Conduit Surcharge Summary
  *************************
  
  ----------------------------------------------------------------------------
                                                           Hours        Hours 
                         --------- Hours Full --------   Above Full   Capacity
  Conduit                Both Ends  Upstream  Dnstream   Normal Flow   Limited
  ----------------------------------------------------------------------------
  WS02003072WS02003073        0.01      0.01      0.01      1.16         0.01
  WS02004403WS02004404        0.01      0.01      0.03      0.01         0.01
  WS02004404WS02004405        0.01      0.03      0.01      4.03         0.01
  WS02004405WS02004406        0.01      0.01      0.01      0.61         0.01
  WS02006109WS02006110        0.75      0.75      2.21      0.85         0.01
  WS02006110WS02006113        0.01      0.01      2.15      0.01         0.01
  WS02006111WS02006112        0.01      0.01      3.43      0.01         0.01
  WS02006112WS02006115        0.01      0.01      0.84      0.01         0.01
  WS02006228WS02006109        2.11      2.22      2.11      3.71         2.10
  WS02006229WS02006228        2.10      2.11      2.10      3.05         2.09
  WS02006230WS02006229        2.44      2.90      2.44      4.34         2.44
  WS02006231WS02006230        0.76      0.76      0.90      4.15         0.01
  WS02006232WS02006231        0.86      0.86      2.22      0.94         0.01
  WS02006234WS02006232        2.09      2.09      2.22      0.92         0.92
  WS02006235WS02006234        1.13      1.14      2.10      4.08         0.02
  WS02006238WS02006235        2.12      2.12      2.23      0.01         0.01
  WS02006239WS02006238        2.15      2.20      2.16      2.81         2.00
  WS02006240WS02006239        2.10      2.15      2.10      2.77         1.92
  WS02006242WS02006240        2.12      2.12      2.47      3.21         0.01
  WS02006243WS02006242        2.15      2.15      2.28      0.01         0.03
  WS02006245WS02006243        2.14      2.15      2.14      1.99         1.36
  WS02006247WS02006245        2.14      2.18      2.14      3.88         2.13
  WS02006248WS02006247        2.13      2.13      2.16      0.01         0.03
  WS02006249WS02006248        2.12      2.12      2.14      3.86         0.01
  WS02006251WS02006249        2.13      2.15      2.14      2.87         2.06
  WS02006252WS02006251        2.95      2.95      2.98      2.96         0.01
  WS02006256WS02006235        4.09      4.12      6.94      1.14         0.01
  YS02001580YS02001583        0.41      0.41      0.46      0.01         0.01
  YS02001583YS02001586        0.42      0.42      0.57      0.01         0.01
  YS02001586YS02001590        0.57      0.57      0.63      0.01         0.01
  YS02001590YS02001593        0.63      0.63      0.65      0.69         0.01
  YS02001593YS02001596        0.64      0.64      0.72      0.01         0.01
  YS02001596YS02001600        0.75      0.75      0.83      0.01         0.01
  YS02001600YS02001601        0.89      0.89      1.19      0.01         0.01
  YS02001601YS02001602        1.06      1.06      1.24      0.85         0.01
  YS02001602YS02001605        1.01      1.01      1.06      1.99         0.01
  YS02001605YS02001607        0.97      1.01      0.97      1.13         0.97
  YS02001607YS02001610        0.59      0.59      0.61      0.01         0.01
  YS02001610YS02001613        0.58      0.59      0.61      0.01         0.01
  YS02001613YS02001616        0.55      0.55      0.59      0.01         0.01
  YS02001616YS02001619        0.54      0.54      0.55      0.01         0.01
  YS02001619YS02001622        0.53      0.54      0.53      0.67         0.50
  YS02001622YS02001625        0.53      0.53      0.69      0.01         0.01
  YS02001625YS02001629        0.48      0.48      0.69      0.01         0.01
  YS02001629YS02163301        0.68      0.68      0.69      0.18         0.18
  YS02001633YS02163601        0.70      0.70      0.73      0.43         0.42
  YS02001641YS02001644        0.62      0.65      0.62      1.30         0.61
  YS02001644YS02001647        0.43      0.43      0.62      0.03         0.01
  YS02001647YS02001649        0.43      0.43      0.54      0.01         0.01
  YS02001649YS02001757        0.54      0.54      0.59      0.28         0.24
  YS02001652YS02001649        0.38      0.38      0.54      0.01         0.01
  YS02001655YS02001652        0.16      0.16      0.35      0.01         0.01
  YS02001658YS02001655        0.02      0.02      0.16      0.01         0.01
  YS02001661YS02001658        0.01      0.01      0.02      0.01         0.01
  YS02001748YS02001751        0.01      0.01      0.04      0.01         0.01
  YS02001751YS02001754        0.04      0.04      0.22      0.01         0.01
  YS02001754YS02001757        0.29      0.29      0.59      0.01         0.01
  YS02001757CaochengTiaoxuchi        0.49      0.59      2.02      0.28         0.16
  YS02001759YS02001757        0.49      0.49      0.59      0.01         0.01
  YS02001762YS02001759        0.45      0.45      0.49      0.01         0.02
  YS02001765YS02001762        0.41      0.41      0.45      0.01         0.01
  YS02001767YS02001765        0.38      0.38      0.41      0.01         0.02
  YS02001770YS02001767        0.38      0.39      0.38      0.40         0.28
  YS02001774YS02001770        0.36      0.36      0.44      0.01         0.01
  YS02001779YS02001774        0.23      0.23      0.44      0.01         0.01
  YS02001783YS02001784        0.40      0.42      0.40      0.53         0.40
  YS02001784YS02001785        0.31      0.40      0.31      0.71         0.31
  YS02001786YS02001788        0.01      0.31      0.01      0.60         0.01
  YS02001790YS02001791        0.01      0.01      0.01      0.39         0.01
  YS02001793JiankangQianchi        0.01      0.01      7.70      0.01         0.01
  YS02001882YS02001884        0.37      0.37      0.38      0.01         0.01
  YS02001884YS02001887        0.40      0.40      0.41      0.01         0.01
  YS02001887YS02001890        0.42      0.42      0.43      0.01         0.01
  YS02001890YS02001895        0.36      0.36      0.45      0.01         0.01
  YS02001895YS02001898        0.35      0.35      0.36      0.01         0.01
  YS02001898YS02001901        0.36      0.36      0.40      0.01         0.01
  YS02001901YS02001904        0.39      0.39      0.40      0.01         0.01
  YS02001904YS02001907        0.39      0.39      0.59      0.01         0.01
  YS02001907YS02006553        0.72      0.72      0.78      0.01         0.01
  YS02001910YS02001907        0.44      0.44      0.57      0.01         0.01
  YS02001915YS02001910        0.37      0.37      0.44      0.01         0.01
  YS02001918YS02001915        0.29      0.29      0.37      0.01         0.01
  YS02001920YS02001918        0.29      0.29      0.30      0.01         0.01
  YS02001923YS02001920        0.25      0.25      0.30      0.01         0.01
  YS02001926YS02001923        0.01      0.01      0.01      0.01         0.01
  YS02001929YS02001926        0.01      0.01      0.01      0.01         0.01
  YS02006553YS02006556        0.51      0.51      0.59      0.01         0.01
  YS02006556YS02006558        0.55      0.55      0.60      0.01         0.01
  YS02006558YS02006561        0.32      0.50      0.32      0.67         0.32
  YS02006561YS02001783        0.25      0.25      0.42      0.01         0.01
  YS02163301YS02001633        0.69      0.69      0.72      0.01         0.01
  YS02163601YS02164001        0.66      0.66      0.73      0.03         0.01
  YS02164001YS02001641        0.65      0.66      0.65      0.73         0.62
  
  
  ***************
  Pumping Summary
  ***************
  
  ---------------------------------------------------------------------------------------------------------
                                                  Min       Avg       Max     Total     Power    % Time Off
                        Percent   Number of      Flow      Flow      Flow    Volume     Usage    Pump Curve
  Pump                 Utilized   Start-Ups       LPS       LPS       LPS  10^6 ltr     Kw-hr    Low   High
  ---------------------------------------------------------------------------------------------------------
  CC-R1                   14.07           3      0.00    683.00    683.00     2.769     51.01    0.0   13.3
  CC-R2                    9.11           4      0.00    683.00    683.00     1.792     32.93    0.0   20.8
  CC-S1                   45.65          14      0.00    200.00    200.00     2.629     16.31    0.0    0.0
  CC-S2                   41.16          24      0.00    200.00    200.00     2.371     14.74    0.0    0.0
  JK-R1                    4.51          10      0.00   1000.00   1000.00     1.300     13.81    0.0    0.0
  JK-R2                    2.64           6      0.00   1000.00   1000.00     0.762      6.14    0.0    0.0
  JK-S                    14.20          12      0.00    300.00    300.00     1.227     19.70    0.0    0.0
  

  Analysis begun on:  Wed Jan 15 10:41:10 2025
  Analysis ended on:  Wed Jan 15 10:41:11 2025
  Total elapsed time: 00:00:01