
  EPA STORM WATER MANAGEMENT MODEL - VERSION 5.2 (Build 5.2.4)
  PYSWMM TOOLKIT API - VERSION v1.0 (2023-11-27)
  ------------------------------------------------------------

  WARNING 04: minimum elevation drop used for Conduit WS02004404WS02004405
  WARNING 03: negative offset ignored for Link YS02001904YS02001907
  
  ****************
  Analysis Options
  ****************
  Flow Units ............... LPS
  Process Models:
    Rainfall/Runoff ........ YES
    RDII ................... NO
    Snowmelt ............... NO
    Groundwater ............ NO
    Flow Routing ........... YES
    Ponding Allowed ........ NO
    Water Quality .......... NO
  Infiltration Method ...... HORTON
  Flow Routing Method ...... DYNWAVE
  Surcharge Method ......... EXTRAN
  Starting Date ............ 08/28/2015 08:00:00
  Ending Date .............. 08/28/2015 16:00:00
  Antecedent Dry Days ...... 8.0
  Report Time Step ......... 00:01:00
  Wet Time Step ............ 00:01:00
  Dry Time Step ............ 00:01:00
  Routing Time Step ........ 30.00 sec
  Variable Time Step ....... YES
  Maximum Trials ........... 8
  Number of Threads ........ 4
  Head Tolerance ........... 0.001500 m
  
  
  **************************        Volume         Depth
  Runoff Quantity Continuity     hectare-m            mm
  **************************     ---------       -------
  Total Precipitation ......         2.598        78.315
  Evaporation Loss .........         0.000         0.000
  Infiltration Loss ........         0.100         3.020
  Surface Runoff ...........         2.465        74.321
  Final Storage ............         0.033         0.994
  Continuity Error (%) .....        -0.025
  
  
  **************************        Volume        Volume
  Flow Routing Continuity        hectare-m      10^6 ltr
  **************************     ---------     ---------
  Dry Weather Inflow .......         0.025         0.251
  Wet Weather Inflow .......         2.466        24.658
  Groundwater Inflow .......         0.000         0.000
  RDII Inflow ..............         0.000         0.000
  External Inflow ..........         0.083         0.834
  External Outflow .........         1.747        17.475
  Flooding Loss ............         0.882         8.815
  Evaporation Loss .........         0.000         0.000
  Exfiltration Loss ........         0.000         0.000
  Initial Stored Volume ....         0.243         2.431
  Final Stored Volume ......         0.196         1.960
  Continuity Error (%) .....        -0.274
  
  
  *************************
  Highest Continuity Errors
  *************************
  Node YS02001583 (-12.43%)
  Node YS02001884 (5.22%)
  
  
  ***************************
  Time-Step Critical Elements
  ***************************
  Link WS02006252WS02006251 (35.26%)
  Link WS02006238WS02006235 (18.28%)
  Link WS02004404WS02004405 (15.03%)
  Link WS02006235WS02006234 (9.26%)
  Link YS02001791YS02001793 (6.70%)
  
  
  ********************************
  Highest Flow Instability Indexes
  ********************************
  Link WS02006113WS02006111 (52)
  Link WS02006111WS02006112 (26)
  Link WS02004404WS02004405 (24)
  Link WS02004403WS02004404 (21)
  Link WS02004405WS02004406 (20)
  
  
  *********************************
  Most Frequent Nonconverging Nodes
  *********************************
  Node CC-1 (14.12%)
  Node CC-2 (14.12%)
  Node JK-1 (14.12%)
  Node JK-2 (14.12%)
  Node WSC (14.12%)
  
  
  *************************
  Routing Time Step Summary
  *************************
  Minimum Time Step           :     0.00 sec
  Average Time Step           :     2.09 sec
  Maximum Time Step           :     7.04 sec
  % of Time in Steady State   :     0.00
  Average Iterations per Step :     3.29
  % of Steps Not Converging   :    14.12
  Time Step Frequencies       :
     30.000 - 13.228 sec      :     0.00 %
     13.228 -  5.833 sec      :     8.68 %
      5.833 -  2.572 sec      :    19.31 %
      2.572 -  1.134 sec      :    29.58 %
      1.134 -  0.500 sec      :    42.43 %
  
  
  ***************************
  Subcatchment Runoff Summary
  ***************************
  
  ------------------------------------------------------------------------------------------------------------------------------
                            Total      Total      Total      Total     Imperv       Perv      Total       Total     Peak  Runoff
                           Precip      Runon       Evap      Infil     Runoff     Runoff     Runoff      Runoff   Runoff   Coeff
  Subcatchment                 mm         mm         mm         mm         mm         mm         mm    10^6 ltr      LPS
  ------------------------------------------------------------------------------------------------------------------------------
  sub60                     78.32       0.00       0.00       1.84      67.72       7.57      75.29        0.99   618.33   0.961
  sub61                     78.32       0.00       0.00       2.66      63.88      10.66      74.54        1.37   853.79   0.952
  sub62                     78.32       0.00       0.00       1.22      70.77       5.05      75.81        2.08  1199.41   0.968
  sub63                     78.32       0.00       0.00       4.87      54.64      17.85      72.49        1.65   940.61   0.926
  sub64                     78.32       0.00       0.00       2.46      65.37       9.29      74.65        1.79   971.31   0.953
  sub65                     78.32       0.00       0.00       2.13      66.89       8.05      74.94        2.06  1082.53   0.957
  sub66                     78.32       0.00       0.00       5.97      54.53      16.75      71.28        3.32  1400.33   0.910
  sub67                     78.32       0.00       0.00       1.18      70.81       5.09      75.90        1.41   936.48   0.969
  sub68                     78.32       0.00       0.00       2.20      66.17       8.77      74.94        2.06  1231.16   0.957
  sub69                     78.32       0.00       0.00       1.95      66.46       9.80      76.26        2.82  1447.68   0.974
  sub70                     78.32       0.00       0.00       6.43      51.53      20.20      71.72        2.07   789.18   0.916
  sub71                     78.32       0.00       0.00       1.25      70.73       5.02      75.74        1.98  1053.08   0.967
  sub72                     78.32       0.00       0.00       1.11      71.44       4.37      75.81        1.04   506.64   0.968
  
  
  ******************
  Node Depth Summary
  ******************
  
  ---------------------------------------------------------------------------------
                                 Average  Maximum  Maximum  Time of Max    Reported
                                   Depth    Depth      HGL   Occurrence   Max Depth
  Node                 Type       Meters   Meters   Meters  days hr:min      Meters
  ---------------------------------------------------------------------------------
  WS02003060           JUNCTION     0.26     0.38     5.32     0  02:13        0.38
  WS02003066           JUNCTION     0.21     0.30     5.85     0  02:13        0.30
  WS02003067           JUNCTION     0.53     0.70     6.02     0  02:12        0.70
  WS02003069           JUNCTION     0.28     0.43     5.02     0  02:14        0.43
  WS02003072           JUNCTION     0.35     0.50     4.87     0  02:14        0.50
  WS02003073           JUNCTION     0.20     0.30     4.36     0  02:15        0.30
  WS02004401           JUNCTION     0.64     0.88     6.88     0  02:09        0.88
  WS02004402           JUNCTION     0.67     0.91     6.87     0  02:10        0.90
  WS02004403           JUNCTION     0.70     0.92     6.85     0  02:11        0.92
  WS02004404           JUNCTION     0.77     1.05     6.90     0  02:11        1.00
  WS02004405           JUNCTION     0.75     0.97     6.82     0  02:11        0.96
  WS02004406           JUNCTION     0.76     0.96     6.79     0  02:11        0.96
  WS02004407           JUNCTION     0.20     0.30     6.61     0  02:11        0.30
  WS02004409           JUNCTION     0.44     0.67     6.44     0  02:11        0.67
  WS02004410           JUNCTION     0.46     0.68     6.40     0  02:11        0.68
  WS02004411           JUNCTION     0.48     0.69     6.37     0  02:12        0.69
  WS02004412           JUNCTION     0.49     0.70     6.34     0  02:12        0.70
  WS02004413           JUNCTION     0.65     0.86     6.33     0  02:12        0.86
  WS02006109           JUNCTION     0.70     1.20     7.82     0  02:16        1.11
  WS02006110           JUNCTION     0.70     1.28     7.86     0  02:16        1.01
  WS02006111           JUNCTION     0.20     0.29     6.99     0  02:56        0.29
  WS02006112           JUNCTION     0.80     1.09     6.97     0  02:10        1.08
  WS02006113           JUNCTION     0.30     0.46     7.35     0  03:11        0.46
  WS02006115           JUNCTION     0.53     0.78     6.91     0  02:10        0.77
  WS02006116           JUNCTION     0.61     0.86     6.90     0  02:10        0.85
  WS02006228           JUNCTION     0.70     1.18     7.83     0  02:36        1.12
  WS02006229           JUNCTION     0.67     1.22     7.91     0  02:36        1.10
  WS02006230           JUNCTION     0.68     1.43     8.17     0  02:36        1.17
  WS02006231           JUNCTION     0.47     1.50     8.62     0  02:00        0.92
  WS02006232           JUNCTION     0.61     1.49     8.53     0  02:36        1.13
  WS02006234           JUNCTION     0.55     1.68     8.83     0  02:36        1.27
  WS02006235           JUNCTION     0.59     2.00     9.16     0  02:36        1.45
  WS02006238           JUNCTION     0.62     2.08     9.23     0  02:36        1.52
  WS02006239           JUNCTION     0.59     2.02     9.23     0  02:36        1.58
  WS02006240           JUNCTION     0.56     1.83     9.13     0  02:36        1.57
  WS02006242           JUNCTION     0.64     1.55     8.82     0  01:40        1.55
  WS02006243           JUNCTION     0.55     1.48     8.90     0  01:40        1.46
  WS02006245           JUNCTION     0.55     1.43     8.92     0  01:40        1.36
  WS02006247           JUNCTION     0.57     1.42     8.92     0  01:40        1.29
  WS02006248           JUNCTION     0.53     1.10     8.69     0  01:40        1.10
  WS02006249           JUNCTION     0.56     1.09     8.69     0  01:31        1.09
  WS02006251           JUNCTION     0.56     1.65     9.32     0  01:31        1.13
  WS02006252           JUNCTION     0.40     1.50     9.74     0  00:00        0.70
  WS02006256           JUNCTION     1.04     2.35     9.28     0  00:00        2.35
  WSF200               JUNCTION     0.19     0.29     5.52     0  02:13        0.29
  YS02001580           JUNCTION     0.12     1.05     9.59     0  01:33        0.77
  YS02001583           JUNCTION     0.16     1.14     9.64     0  01:34        0.82
  YS02001586           JUNCTION     0.24     1.13     9.30     0  01:34        1.13
  YS02001590           JUNCTION     0.34     1.40     9.26     0  02:07        1.40
  YS02001593           JUNCTION     0.27     1.31     9.17     0  01:34        1.28
  YS02001596           JUNCTION     0.36     1.67     9.08     0  01:34        1.66
  YS02001600           JUNCTION     0.43     1.87     9.00     0  01:33        1.86
  YS02001601           JUNCTION     0.62     2.06     8.90     0  01:33        2.06
  YS02001602           JUNCTION     0.53     1.87     8.77     0  01:33        1.87
  YS02001605           JUNCTION     0.50     1.78     8.68     0  01:34        1.78
  YS02001607           JUNCTION     0.49     1.65     8.49     0  01:45        1.64
  YS02001610           JUNCTION     0.53     1.68     8.48     0  01:34        1.68
  YS02001613           JUNCTION     0.49     1.70     8.54     0  01:34        1.70
  YS02001616           JUNCTION     0.42     1.61     8.52     0  01:34        1.61
  YS02001619           JUNCTION     0.40     1.61     8.54     0  01:34        1.61
  YS02001622           JUNCTION     0.39     1.62     8.52     0  01:34        1.58
  YS02001625           JUNCTION     0.65     1.78     8.38     0  01:34        1.78
  YS02001629           JUNCTION     0.51     1.85     8.40     0  01:34        1.85
  YS02001633           JUNCTION     0.59     2.08     8.53     0  01:35        2.08
  YS02001641           JUNCTION     0.58     2.04     8.48     0  02:07        1.99
  YS02001644           JUNCTION     0.57     1.92     8.35     0  01:36        1.92
  YS02001647           JUNCTION     0.36     1.83     8.44     0  01:36        1.83
  YS02001649           JUNCTION     0.41     2.05     8.44     0  01:36        2.05
  YS02001652           JUNCTION     0.31     2.16     8.76     0  01:35        2.16
  YS02001655           JUNCTION     0.24     2.20     9.05     0  01:36        2.20
  YS02001658           JUNCTION     0.18     2.30     9.44     0  01:36        2.30
  YS02001661           JUNCTION     0.19     2.46     9.86     0  01:36        1.23
  YS02001664           JUNCTION     0.07     2.31    10.23     0  01:37        0.57
  YS02001745           JUNCTION     0.09     2.35     9.87     0  01:36        1.91
  YS02001748           JUNCTION     0.17     2.27     9.35     0  01:36        2.27
  YS02001751           JUNCTION     0.21     2.20     9.08     0  01:36        2.20
  YS02001754           JUNCTION     0.28     2.20     8.81     0  01:36        2.20
  YS02001757           JUNCTION     0.44     2.21     8.47     0  01:36        2.21
  YS02001759           JUNCTION     0.38     2.21     8.57     0  01:36        2.21
  YS02001762           JUNCTION     0.37     2.15     8.55     0  01:36        2.15
  YS02001765           JUNCTION     0.35     2.10     8.55     0  01:35        2.10
  YS02001767           JUNCTION     0.35     2.03     8.52     0  01:35        2.03
  YS02001770           JUNCTION     0.36     1.95     8.44     0  01:35        1.95
  YS02001774           JUNCTION     0.43     2.03     8.45     0  01:39        2.03
  YS02001779           JUNCTION     0.26     1.68     8.37     0  01:36        1.68
  YS02001783           JUNCTION     0.27     1.41     7.55     0  01:35        1.23
  YS02001784           JUNCTION     0.28     1.32     7.39     0  01:35        1.11
  YS02001786           JUNCTION     0.23     1.33     7.36     0  01:35        0.87
  YS02001788           JUNCTION     0.16     0.62     6.60     0  01:36        0.62
  YS02001790           JUNCTION     0.19     0.72     6.37     0  01:42        0.72
  YS02001791           JUNCTION     0.12     0.44     5.91     0  01:39        0.43
  YS02001793           JUNCTION     0.07     0.29     5.13     0  01:40        0.29
  YS02001882           JUNCTION     0.35     1.73     8.45     0  01:34        1.68
  YS02001884           JUNCTION     0.44     1.81     8.43     0  01:34        1.79
  YS02001887           JUNCTION     0.52     1.87     8.41     0  01:37        1.87
  YS02001890           JUNCTION     0.54     1.81     8.32     0  01:34        1.81
  YS02001895           JUNCTION     0.31     1.62     8.36     0  01:39        1.62
  YS02001898           JUNCTION     0.32     1.66     8.39     0  01:39        1.66
  YS02001901           JUNCTION     0.44     1.76     8.37     0  01:39        1.76
  YS02001904           JUNCTION     0.42     1.69     8.32     0  01:39        1.69
  YS02001907           JUNCTION     0.74     1.96     8.25     0  01:35        1.96
  YS02001910           JUNCTION     0.54     2.08     8.58     0  01:35        1.94
  YS02001915           JUNCTION     0.35     2.00     8.72     0  01:35        2.00
  YS02001918           JUNCTION     0.21     1.81     8.88     0  01:35        1.53
  YS02001920           JUNCTION     0.28     2.14     9.15     0  01:35        1.59
  YS02001923           JUNCTION     0.16     2.03     9.29     0  01:35        1.33
  YS02001926           JUNCTION     0.19     1.90     9.35     0  01:35        1.17
  YS02001929           JUNCTION     0.11     1.78     9.47     0  01:35        1.78
  YS02006553           JUNCTION     0.74     2.09     8.37     0  01:39        2.09
  YS02006556           JUNCTION     0.71     2.22     8.53     0  01:39        2.22
  YS02006558           JUNCTION     0.76     2.40     8.67     0  01:39        2.40
  YS02006561           JUNCTION     0.17     1.15     7.81     0  01:35        0.90
  YS02163301           JUNCTION     0.54     1.96     8.47     0  01:35        1.95
  YS02163601           JUNCTION     0.63     2.08     8.48     0  01:35        2.08
  YS02164001           JUNCTION     0.56     2.06     8.52     0  02:07        2.02
  CC-1                 OUTFALL      0.00     0.00     0.00     0  00:00        0.00
  CC-2                 OUTFALL      0.00     0.00     0.00     0  00:00        0.00
  JK-1                 OUTFALL      0.00     0.00     0.00     0  00:00        0.00
  JK-2                 OUTFALL      0.00     0.00     0.00     0  00:00        0.00
  WSC                  OUTFALL      0.20     0.30     0.97     0  02:15        0.30
  CC-storage           STORAGE      0.91     1.74     7.24     0  02:19        1.74
  JK-storage           STORAGE      2.91     4.24     5.04     0  01:55        4.19
  
  
  *******************
  Node Inflow Summary
  *******************
  
  -------------------------------------------------------------------------------------------------
                                  Maximum  Maximum                  Lateral       Total        Flow
                                  Lateral    Total  Time of Max      Inflow      Inflow     Balance
                                   Inflow   Inflow   Occurrence      Volume      Volume       Error
  Node                 Type           LPS      LPS  days hr:min    10^6 ltr    10^6 ltr     Percent
  -------------------------------------------------------------------------------------------------
  WS02003060           JUNCTION     16.53   555.75     0  02:13       0.476        6.63       0.033
  WS02003066           JUNCTION      0.00   539.07     0  02:13           0        6.16       0.022
  WS02003067           JUNCTION      0.00   539.05     0  02:12           0        6.16       0.067
  WS02003069           JUNCTION      0.32   555.84     0  02:13     0.00922        6.64       0.058
  WS02003072           JUNCTION      0.00   555.53     0  02:14           0        6.63       0.105
  WS02003073           JUNCTION      1.82   557.12     0  02:14      0.0524        6.68       0.083
  WS02004401           JUNCTION      0.00   539.07     0  02:02           0        6.26       0.163
  WS02004402           JUNCTION      0.00   539.70     0  02:10           0        6.25       0.165
  WS02004403           JUNCTION      0.00   543.87     0  02:10           0        6.24       0.160
  WS02004404           JUNCTION      0.16   564.93     0  02:11     0.00467        6.23       0.128
  WS02004405           JUNCTION      0.04   610.44     0  02:10      0.0011        6.22       0.149
  WS02004406           JUNCTION      0.00   546.30     0  02:09           0        6.22       0.331
  WS02004407           JUNCTION      0.00   541.27     0  02:11           0        6.19       0.018
  WS02004409           JUNCTION      0.00   540.79     0  02:11           0        6.19       0.043
  WS02004410           JUNCTION      0.00   540.40     0  02:11           0        6.19       0.070
  WS02004411           JUNCTION      0.00   539.89     0  02:11           0        6.19       0.089
  WS02004412           JUNCTION      0.00   539.59     0  02:12           0        6.18       0.120
  WS02004413           JUNCTION      0.00   539.46     0  02:12           0        6.17       0.212
  WS02006109           JUNCTION      1.23   563.21     0  03:11      0.0354         6.3       0.139
  WS02006110           JUNCTION      0.00   565.27     0  03:11           0        6.29       0.108
  WS02006111           JUNCTION      0.00   565.31     0  03:11           0        6.28       0.011
  WS02006112           JUNCTION      0.00   543.12     0  02:41           0        6.28       0.284
  WS02006113           JUNCTION      0.00   571.39     0  03:11           0        6.29       0.032
  WS02006115           JUNCTION      0.00   559.11     0  03:11           0        6.27       0.104
  WS02006116           JUNCTION      0.00   542.50     0  02:02           0        6.26       0.038
  WS02006228           JUNCTION      0.00   558.27     0  03:11           0        6.27       0.047
  WS02006229           JUNCTION      0.00   557.75     0  01:32           0        6.27       0.070
  WS02006230           JUNCTION     10.28   588.66     0  01:55       0.296        6.28       0.052
  WS02006231           JUNCTION      0.00   575.10     0  02:25           0        5.98       0.049
  WS02006232           JUNCTION      0.00   574.22     0  02:25           0        5.99       0.114
  WS02006234           JUNCTION      0.00   570.09     0  02:25           0        5.98      -0.103
  WS02006235           JUNCTION      0.00   563.76     0  03:00           0        6.02       0.097
  WS02006238           JUNCTION      0.00   425.59     0  03:05           0        5.07      -0.186
  WS02006239           JUNCTION      0.00   424.98     0  03:06           0        5.05      -0.179
  WS02006240           JUNCTION      0.00   422.27     0  03:06           0        5.04      -0.026
  WS02006242           JUNCTION      0.00   422.00     0  03:06           0        5.03       0.017
  WS02006243           JUNCTION      0.00   421.23     0  03:06           0        5.02      -0.125
  WS02006245           JUNCTION      0.00   420.91     0  03:05           0        5.03       0.254
  WS02006247           JUNCTION      0.00   422.21     0  03:06           0        5.03       0.015
  WS02006248           JUNCTION      0.00   424.21     0  03:06           0        5.03       0.010
  WS02006249           JUNCTION      0.00   459.02     0  00:00           0        5.29       0.237
  WS02006251           JUNCTION      0.08   409.79     0  01:31     0.00222        5.29       0.011
  WS02006252           JUNCTION      0.00   400.00     0  00:00           0        5.28      -0.234
  WS02006256           JUNCTION      0.00   317.85     0  01:40           0        1.42      -0.637
  WSF200               JUNCTION      0.00   539.12     0  02:13           0        6.16       0.006
  YS02001580           JUNCTION      0.00   167.39     0  01:33           0     0.00472      -0.452
  YS02001583           JUNCTION      0.00   269.20     0  01:34           0       0.015     -11.059
  YS02001586           JUNCTION    789.18   789.21     0  01:43        2.07        2.08       0.082
  YS02001590           JUNCTION      0.00   318.47     0  02:07           0        1.52      -0.029
  YS02001593           JUNCTION      0.00   319.93     0  02:07           0        1.52       0.007
  YS02001596           JUNCTION      0.00   318.01     0  01:44           0        1.52      -0.003
  YS02001600           JUNCTION      0.00   318.10     0  02:02           0        1.52       0.005
  YS02001601           JUNCTION   1447.68  1765.34     0  01:40        2.82        4.35       0.009
  YS02001602           JUNCTION      0.00   579.41     0  01:33           0        2.49       0.018
  YS02001605           JUNCTION      0.00   579.33     0  01:33           0        2.33       0.019
  YS02001607           JUNCTION      0.00   579.28     0  01:33           0        2.33       0.071
  YS02001610           JUNCTION      0.00   782.11     0  01:42           0        2.69       0.071
  YS02001613           JUNCTION      0.00   548.00     0  01:33           0        2.06       0.077
  YS02001616           JUNCTION      0.00   547.54     0  01:33           0        2.06       0.014
  YS02001619           JUNCTION   1400.33  1400.33     0  01:42        3.32        5.03      -0.007
  YS02001622           JUNCTION      0.00   963.38     0  01:34           0        4.67      -0.005
  YS02001625           JUNCTION      0.00  1376.41     0  01:43           0        4.94       0.170
  YS02001629           JUNCTION      0.00   917.67     0  01:34           0        3.69      -0.013
  YS02001633           JUNCTION   1082.73  1427.43     0  01:35        2.07        5.39       0.063
  YS02001641           JUNCTION      0.00  1427.92     0  01:35           0        5.04       0.054
  YS02001644           JUNCTION    971.35  1955.85     0  01:35        1.79        6.83       0.037
  YS02001647           JUNCTION      0.00  1955.15     0  01:35           0        6.24       0.004
  YS02001649           JUNCTION      0.00  2226.64     0  01:35           0        7.89       0.001
  YS02001652           JUNCTION      0.00  1066.33     0  01:37           0        1.65      -0.124
  YS02001655           JUNCTION      0.15  1065.88     0  01:37     0.00443        1.65      -0.062
  YS02001658           JUNCTION      0.00  1065.37     0  01:37           0        1.65      -0.036
  YS02001661           JUNCTION      0.00  1064.72     0  01:37           0        1.65       0.022
  YS02001664           JUNCTION    940.61   940.61     0  01:39        1.65        1.65      -0.018
  YS02001745           JUNCTION    618.34   764.73     0  01:36        0.99       0.991       0.181
  YS02001748           JUNCTION      0.04   939.94     0  01:36      0.0013       0.995      -0.392
  YS02001751           JUNCTION      0.01   674.74     0  01:37    0.000317           1       0.083
  YS02001754           JUNCTION      0.26   674.38     0  01:37     0.00749        1.02      -0.187
  YS02001757           JUNCTION      0.00  3622.96     0  01:37           0        12.1       0.040
  YS02001759           JUNCTION    853.83  1556.28     0  01:36        1.37        3.16      -0.007
  YS02001762           JUNCTION      0.00   795.11     0  01:36           0        1.79      -0.009
  YS02001765           JUNCTION      0.00   796.92     0  01:36           0        1.79      -0.003
  YS02001767           JUNCTION      0.54   797.94     0  01:36      0.0154        1.79      -0.010
  YS02001770           JUNCTION   1199.56  1199.56     0  01:39        2.08        2.13      -0.040
  YS02001774           JUNCTION      0.00   642.75     0  01:36           0       0.369       0.262
  YS02001779           JUNCTION      0.01   644.40     0  01:36    0.000144       0.323      -0.343
  YS02001783           JUNCTION      0.00  1170.01     0  01:37           0        4.59       0.004
  YS02001784           JUNCTION      1.06  1170.87     0  01:37      0.0305        4.62       0.011
  YS02001786           JUNCTION      0.06  1171.11     0  01:37     0.00162        4.62       0.013
  YS02001788           JUNCTION      0.07  1171.02     0  01:37     0.00204        4.62       0.007
  YS02001790           JUNCTION      0.15  1182.36     0  01:36     0.00446        4.63       0.026
  YS02001791           JUNCTION      0.00  1290.44     0  01:42           0        4.63      -0.028
  YS02001793           JUNCTION      0.00  1245.39     0  01:45           0        4.63       0.006
  YS02001882           JUNCTION      0.00   104.38     0  01:34           0      0.0129       5.736
  YS02001884           JUNCTION      0.00   145.33     0  01:34           0      0.0489       5.504
  YS02001887           JUNCTION    936.93   937.66     0  01:38        1.42        1.46       0.318
  YS02001890           JUNCTION      0.00   937.99     0  01:38           0        1.42       0.345
  YS02001895           JUNCTION      0.00   609.37     0  01:35           0        1.25       0.126
  YS02001898           JUNCTION      0.00   609.44     0  01:35           0        1.24       0.018
  YS02001901           JUNCTION      0.00   609.32     0  01:35           0        1.25       0.275
  YS02001904           JUNCTION      0.00   608.17     0  01:35           0        1.25       0.225
  YS02001907           JUNCTION      0.00  2130.92     0  01:39           0        4.36       0.384
  YS02001910           JUNCTION      0.00  1569.05     0  01:40           0        3.11       0.234
  YS02001915           JUNCTION   1053.10  1568.73     0  01:40        1.98        3.16       0.037
  YS02001918           JUNCTION      0.00   760.98     0  01:35           0        1.21      -0.007
  YS02001920           JUNCTION      2.87   745.95     0  01:35      0.0827        1.19       0.061
  YS02001923           JUNCTION      0.04   987.27     0  01:35     0.00109        1.09      -0.067
  YS02001926           JUNCTION      0.05  1223.43     0  01:35      0.0015        1.07      -0.058
  YS02001929           JUNCTION    506.64   896.28     0  01:35        1.04        1.05      -0.062
  YS02006553           JUNCTION      0.00   792.55     0  02:03           0        2.58       0.460
  YS02006556           JUNCTION      0.00   792.61     0  02:03           0        2.59       0.315
  YS02006558           JUNCTION   1232.04  1232.04     0  01:39        2.09        4.64       0.083
  YS02006561           JUNCTION      0.00  1180.81     0  01:34           0        4.59      -0.008
  YS02163301           JUNCTION      0.00   879.78     0  01:35           0        3.67       0.040
  YS02163601           JUNCTION      0.11  1427.27     0  01:35     0.00317        5.03       0.094
  YS02164001           JUNCTION      0.00  1427.40     0  01:35           0        5.03       0.042
  CC-1                 OUTFALL       0.00   683.00     0  00:00           0        3.91       0.000
  CC-2                 OUTFALL       0.00   683.00     0  00:00           0        3.73       0.000
  JK-1                 OUTFALL       0.00  1000.00     0  00:00           0        2.29       0.000
  JK-2                 OUTFALL       0.00  1000.00     0  00:00           0       0.875       0.000
  WSC                  OUTFALL       0.00   556.77     0  02:15           0        6.67       0.000
  CC-storage           STORAGE       0.00  3623.23     0  01:37           0        14.3      -0.225
  JK-storage           STORAGE       0.00  1306.97     0  01:45           0        4.78       0.156
  
  
  **********************
  Node Surcharge Summary
  **********************
  
  Surcharging occurs when water rises above the top of the highest conduit.
  ---------------------------------------------------------------------
                                               Max. Height   Min. Depth
                                   Hours       Above Crown    Below Rim
  Node                 Type      Surcharged         Meters       Meters
  ---------------------------------------------------------------------
  WS02004404           JUNCTION        0.02          0.053        2.727
  WS02006109           JUNCTION        2.68          0.380        1.440
  WS02006110           JUNCTION        0.81          0.367        1.483
  WS02006112           JUNCTION        1.05          0.088        1.592
  WS02006228           JUNCTION        2.67          0.348        1.852
  WS02006229           JUNCTION        2.69          0.420        2.030
  WS02006230           JUNCTION        0.82          0.346        1.224
  WS02006231           JUNCTION        1.01          0.790        0.740
  WS02006232           JUNCTION        2.78          0.790        0.690
  WS02006234           JUNCTION        1.43          0.957        0.283
  WS02006235           JUNCTION        2.66          1.290        0.000
  WS02006238           JUNCTION        2.73          1.362        0.068
  WS02006239           JUNCTION        2.68          1.277        0.013
  WS02006240           JUNCTION        2.70          1.122        0.268
  WS02006242           JUNCTION        2.80          0.820        0.000
  WS02006243           JUNCTION        2.66          0.770        0.000
  WS02006245           JUNCTION        2.63          0.723        0.127
  WS02006247           JUNCTION        2.65          0.706        0.054
  WS02006248           JUNCTION        2.61          0.380        0.000
  WS02006249           JUNCTION        2.63          0.390        0.000
  WS02006251           JUNCTION        1.07          0.619        0.561
  WS02006252           JUNCTION        3.25          1.100        0.000
  WS02006256           JUNCTION        7.18          2.050        0.000
  YS02001580           JUNCTION        0.78          0.450        0.000
  YS02001583           JUNCTION        0.79          0.500        0.000
  YS02001586           JUNCTION        0.96          0.510        0.000
  YS02001590           JUNCTION        1.04          0.750        0.000
  YS02001593           JUNCTION        1.04          0.689        0.151
  YS02001596           JUNCTION        1.16          0.936        0.134
  YS02001600           JUNCTION        1.31          1.190        0.000
  YS02001601           JUNCTION        1.65          1.440        0.000
  YS02001602           JUNCTION        1.57          1.270        0.000
  YS02001605           JUNCTION        1.53          1.180        0.000
  YS02001607           JUNCTION        1.03          0.647        0.033
  YS02001610           JUNCTION        1.06          0.680        0.000
  YS02001613           JUNCTION        1.03          0.700        0.000
  YS02001616           JUNCTION        0.98          0.610        0.000
  YS02001619           JUNCTION        0.97          0.610        0.000
  YS02001622           JUNCTION        0.97          0.620        0.000
  YS02001625           JUNCTION        1.16          0.780        0.000
  YS02001629           JUNCTION        0.91          0.470        0.000
  YS02001633           JUNCTION        1.19          1.060        0.000
  YS02001641           JUNCTION        1.15          1.038        0.062
  YS02001644           JUNCTION        1.14          0.920        0.000
  YS02001647           JUNCTION        0.92          0.835        0.065
  YS02001649           JUNCTION        1.08          1.050        0.000
  YS02001652           JUNCTION        0.85          1.130        0.000
  YS02001655           JUNCTION        0.62          1.200        0.000
  YS02001658           JUNCTION        0.30          1.300        0.000
  YS02001661           JUNCTION        0.05          1.390        0.000
  YS02001664           JUNCTION        0.01          1.310        0.000
  YS02001745           JUNCTION        0.01          1.350        0.000
  YS02001748           JUNCTION        0.22          1.190        0.000
  YS02001751           JUNCTION        0.43          1.200        0.000
  YS02001754           JUNCTION        0.73          1.150        0.000
  YS02001757           JUNCTION        1.16          1.210        0.000
  YS02001759           JUNCTION        1.05          1.210        0.000
  YS02001762           JUNCTION        1.01          1.150        0.000
  YS02001765           JUNCTION        0.96          1.100        0.000
  YS02001767           JUNCTION        0.91          1.030        0.000
  YS02001770           JUNCTION        0.88          0.920        0.000
  YS02001774           JUNCTION        0.99          1.027        0.023
  YS02001779           JUNCTION        0.71          0.680        0.000
  YS02001783           JUNCTION        0.67          0.614        0.986
  YS02001784           JUNCTION        0.64          0.519        0.971
  YS02001786           JUNCTION        0.53          0.527        0.903
  YS02001882           JUNCTION        0.61          0.732        0.098
  YS02001884           JUNCTION        0.62          0.751        0.119
  YS02001887           JUNCTION        0.66          0.822        0.128
  YS02001890           JUNCTION        0.67          0.760        0.000
  YS02001895           JUNCTION        0.60          0.616        0.134
  YS02001898           JUNCTION        0.59          0.629        0.111
  YS02001901           JUNCTION        0.64          0.764        0.106
  YS02001904           JUNCTION        0.63          0.692        0.158
  YS02001907           JUNCTION        0.88          0.950        0.000
  YS02001910           JUNCTION        0.70          1.076        0.024
  YS02001915           JUNCTION        0.61          1.000        0.000
  YS02001918           JUNCTION        0.52          0.810        0.000
  YS02001920           JUNCTION        0.53          1.140        0.000
  YS02001923           JUNCTION        0.17          0.820        0.000
  YS02001926           JUNCTION        0.20          0.900        0.000
  YS02001929           JUNCTION        0.01          0.780        0.000
  YS02006553           JUNCTION        0.90          1.090        0.100
  YS02006556           JUNCTION        0.79          1.180        0.170
  YS02006558           JUNCTION        0.78          1.304        0.096
  YS02006561           JUNCTION        0.48          0.353        0.797
  YS02163301           JUNCTION        1.18          0.956        0.074
  YS02163601           JUNCTION        1.23          1.080        0.000
  YS02164001           JUNCTION        1.15          1.063        0.037
  
  
  *********************
  Node Flooding Summary
  *********************
  
  Flooding refers to all water that overflows a node, whether it ponds or not.
  --------------------------------------------------------------------------
                                                             Total   Maximum
                                 Maximum   Time of Max       Flood    Ponded
                        Hours       Rate    Occurrence      Volume     Depth
  Node                 Flooded       LPS   days hr:min    10^6 ltr    Meters
  --------------------------------------------------------------------------
  WS02006235              0.01     11.99      0  02:36       0.000     0.000
  WS02006242              0.01     20.90      0  02:36       0.000     0.000
  WS02006243              0.01      8.13      0  01:40       0.000     0.000
  WS02006248              0.01     40.35      0  01:40       0.001     0.000
  WS02006249              1.04    111.23      0  01:41       0.249     0.000
  WS02006252              0.01    245.63      0  00:00       0.000     0.000
  WS02006256              1.31    293.19      0  00:00       0.472     0.000
  YS02001580              0.01    100.66      0  01:34       0.001     0.000
  YS02001583              0.01    241.78      0  01:34       0.000     0.000
  YS02001586              0.64    471.83      0  01:43       0.548     0.000
  YS02001590              0.01      0.32      0  02:07       0.000     0.000
  YS02001600              0.01      2.39      0  01:33       0.000     0.000
  YS02001601              0.87   1367.53      0  01:40       1.859     0.000
  YS02001602              0.77     62.09      0  02:07       0.159     0.000
  YS02001605              0.01      1.51      0  01:34       0.000     0.000
  YS02001610              0.69    781.49      0  01:42       0.982     0.000
  YS02001613              0.01     18.34      0  01:34       0.000     0.000
  YS02001616              0.01    106.04      0  01:34       0.000     0.000
  YS02001619              0.01    199.80      0  01:34       0.001     0.000
  YS02001622              0.01    315.30      0  01:34       0.001     0.000
  YS02001625              0.66   1376.30      0  01:44       1.599     0.000
  YS02001629              0.15    354.40      0  01:38       0.092     0.000
  YS02001633              0.01      2.89      0  01:35       0.000     0.000
  YS02001644              0.26   1096.90      0  01:38       0.573     0.000
  YS02001649              0.01    196.70      0  01:37       0.002     0.000
  YS02001652              0.01    263.95      0  01:35       0.000     0.000
  YS02001655              0.01    473.84      0  01:36       0.001     0.000
  YS02001658              0.01    461.90      0  01:36       0.001     0.000
  YS02001661              0.01    323.63      0  01:36       0.000     0.000
  YS02001664              0.01    112.22      0  01:37       0.000     0.000
  YS02001745              0.01    483.39      0  01:36       0.001     0.000
  YS02001748              0.01    511.36      0  01:36       0.002     0.000
  YS02001751              0.01    511.49      0  01:36       0.001     0.000
  YS02001754              0.01    283.81      0  01:36       0.000     0.000
  YS02001757              0.01     33.57      0  01:36       0.000     0.000
  YS02001759              0.01      6.10      0  01:36       0.000     0.000
  YS02001762              0.01     13.05      0  01:36       0.000     0.000
  YS02001765              0.01     77.20      0  01:35       0.000     0.000
  YS02001767              0.01    189.75      0  01:35       0.000     0.000
  YS02001770              0.01    428.13      0  01:35       0.002     0.000
  YS02001779              0.23    618.54      0  01:36       0.303     0.000
  YS02001890              0.21    412.76      0  01:38       0.166     0.000
  YS02001907              0.45   2130.47      0  01:39       1.782     0.000
  YS02001915              0.01      6.76      0  01:35       0.000     0.000
  YS02001918              0.01    300.18      0  01:35       0.004     0.000
  YS02001920              0.01    129.07      0  01:35       0.000     0.000
  YS02001923              0.01    365.62      0  01:36       0.002     0.000
  YS02001926              0.01    817.29      0  01:36       0.005     0.000
  YS02001929              0.01    789.89      0  01:35       0.002     0.000
  YS02163601              0.01     17.85      0  02:07       0.000     0.000
  
  
  **********************
  Storage Volume Summary
  **********************
  
  ------------------------------------------------------------------------------------------------
                         Average    Avg   Evap  Exfil     Maximum    Max    Time of Max    Maximum
                          Volume   Pcnt   Pcnt   Pcnt      Volume   Pcnt     Occurrence    Outflow
  Storage Unit           1000 m³   Full   Loss   Loss     1000 m³   Full    days hr:min        LPS
  ------------------------------------------------------------------------------------------------
  CC-storage               2.531   39.5    0.0    0.0       4.850   75.7       0  02:19    1783.53
  JK-storage               0.146   50.1    0.0    0.0       0.213   73.0       0  01:55    2300.00
  
  
  ***********************
  Outfall Loading Summary
  ***********************
  
  -----------------------------------------------------------
                         Flow       Avg       Max       Total
                         Freq      Flow      Flow      Volume
  Outfall Node           Pcnt       LPS       LPS    10^6 ltr
  -----------------------------------------------------------
  CC-1                  23.14    683.00    683.00       3.910
  CC-2                  21.94    683.00    683.00       3.727
  JK-1                  10.53   1000.00   1000.00       2.289
  JK-2                   3.85   1000.00   1000.00       0.875
  WSC                   99.96    295.89    556.77       6.674
  -----------------------------------------------------------
  System                31.89   3661.89   3851.26      17.475
  
  
  ********************
  Link Flow Summary
  ********************
  
  -----------------------------------------------------------------------------
                                 Maximum  Time of Max   Maximum    Max/    Max/
                                  |Flow|   Occurrence   |Veloc|    Full    Full
  Link                 Type          LPS  days hr:min     m/sec    Flow   Depth
  -----------------------------------------------------------------------------
  1                    CONDUIT    556.77     0  02:15      2.83    0.19    0.30
  WS02003060WS02003069 CONDUIT    555.52     0  02:13      1.64    0.22    0.34
  WS02003066WSF200     CONDUIT    539.12     0  02:13      2.85    0.09    0.22
  WS02003067WS02003066 CONDUIT    539.07     0  02:13      1.21    0.17    0.42
  WS02003069WS02003072 CONDUIT    555.53     0  02:14      1.37    0.27    0.39
  WS02003072WS02003073 CONDUIT    555.30     0  02:14      1.44    1.20    0.37
  WS02004401WS02004402 CONDUIT    539.70     0  02:10      0.98    0.65    0.89
  WS02004402WS02004403 CONDUIT    543.87     0  02:10      0.97    0.78    0.91
  WS02004403WS02004404 CONDUIT    564.77     0  02:11      0.92    0.41    0.96
  WS02004404WS02004405 CONDUIT    610.40     0  02:10      1.08    5.98    0.98
  WS02004405WS02004406 CONDUIT    546.30     0  02:09      0.99    1.08    0.96
  WS02004406WS02004407 CONDUIT    541.27     0  02:11      1.04    0.24    0.63
  WS02004407WS02004409 CONDUIT    540.79     0  02:11      1.60    0.19    0.48
  WS02004409WS02004410 CONDUIT    540.40     0  02:11      1.05    0.70    0.68
  WS02004410WS02004411 CONDUIT    539.89     0  02:11      1.03    0.74    0.69
  WS02004411WS02004412 CONDUIT    539.59     0  02:12      0.96    0.77    0.70
  WS02004412WS02004413 CONDUIT    539.46     0  02:12      0.82    0.36    0.78
  WS02004413WS02003067 CONDUIT    539.05     0  02:12      1.11    0.23    0.59
  WS02006109WS02006110 CONDUIT    565.27     0  03:11      1.12    1.09    1.00
  WS02006110WS02006113 CONDUIT    571.39     0  03:11      1.37    0.52    0.79
  WS02006111WS02006112 CONDUIT    543.12     0  02:41      1.81    0.26    0.67
  WS02006112WS02006115 CONDUIT    559.11     0  03:11      0.88    0.33    0.88
  WS02006113WS02006111 CONDUIT    565.31     0  03:11      2.48    0.68    0.46
  WS02006115WS02006116 CONDUIT    542.50     0  02:02      1.15    0.70    0.79
  WS02006116WS02004401 CONDUIT    539.07     0  02:02      0.99    0.74    0.87
  WS02006228WS02006109 CONDUIT    561.98     0  03:11      1.12    2.46    1.00
  WS02006229WS02006228 CONDUIT    558.27     0  03:11      1.14    1.85    1.00
  WS02006230WS02006229 CONDUIT    557.75     0  01:32      1.45   12.41    1.00
  WS02006231WS02006230 CONDUIT    578.38     0  01:55      1.58    8.77    1.00
  WS02006232WS02006231 CONDUIT    575.10     0  02:25      1.51    1.21    1.00
  WS02006234WS02006232 CONDUIT    574.22     0  02:25      1.49    1.16    1.00
  WS02006235WS02006234 CONDUIT    570.09     0  02:25      1.48    6.01    1.00
  WS02006238WS02006235 CONDUIT    425.68     0  02:10      1.50    0.95    1.00
  WS02006239WS02006238 CONDUIT    425.59     0  03:05      1.11    1.36    1.00
  WS02006240WS02006239 CONDUIT    424.98     0  03:06      1.24    1.34    1.00
  WS02006242WS02006240 CONDUIT    422.27     0  03:06      1.13    1.68    1.00
  WS02006243WS02006242 CONDUIT    422.00     0  03:06      1.40    0.90    1.00
  WS02006245WS02006243 CONDUIT    421.23     0  03:06      1.45    1.25    1.00
  WS02006247WS02006245 CONDUIT    420.91     0  03:05      1.43    3.34    1.00
  WS02006248WS02006247 CONDUIT    422.21     0  03:06      1.44    0.92    1.00
  WS02006249WS02006248 CONDUIT    424.21     0  03:06      1.36    2.32    1.00
  WS02006251WS02006249 CONDUIT    459.02     0  00:00      1.99    1.32    1.00
  WS02006252WS02006251 CONDUIT    409.72     0  01:31     24.61    1.50    1.00
  WS02006256WS02006235 CONDUIT    288.91     0  00:00      4.23    3.06    1.00
  WSF200WS02003060     CONDUIT    539.22     0  02:13      2.06    0.12    0.28
  YS02001580YS02001583 CONDUIT    167.39     0  01:33      0.89    0.65    1.00
  YS02001583YS02001586 CONDUIT    206.30     0  01:33      0.94    0.31    1.00
  YS02001586YS02001590 CONDUIT    318.47     0  02:07      1.28    0.56    1.00
  YS02001590YS02001593 CONDUIT    319.93     0  02:07      1.13    2.01    1.00
  YS02001593YS02001596 CONDUIT    318.01     0  01:44      1.73    0.50    1.00
  YS02001596YS02001600 CONDUIT    318.10     0  02:02      1.22    0.62    1.00
  YS02001600YS02001601 CONDUIT    318.23     0  02:02      1.13    0.55    1.00
  YS02001601YS02001602 CONDUIT    579.41     0  01:33      2.05    2.09    1.00
  YS02001602YS02001605 CONDUIT    579.33     0  01:33      2.05   12.26    1.00
  YS02001605YS02001607 CONDUIT    579.28     0  01:33      2.05    3.18    1.00
  YS02001607YS02001610 CONDUIT    546.92     0  01:33      0.73    0.52    1.00
  YS02001610YS02001613 CONDUIT    548.00     0  01:33      0.70    0.63    1.00
  YS02001613YS02001616 CONDUIT    547.54     0  01:33      0.70    0.47    1.00
  YS02001616YS02001619 CONDUIT    500.10     0  01:34      0.68    0.87    1.00
  YS02001619YS02001622 CONDUIT    963.38     0  01:34      1.31    1.42    1.00
  YS02001622YS02001625 CONDUIT    960.86     0  01:40      1.22    0.51    1.00
  YS02001625YS02001629 CONDUIT    917.67     0  01:34      1.18    0.44    1.00
  YS02001629YS02163301 CONDUIT    879.78     0  01:35      1.12    1.08    1.00
  YS02001633YS02163601 CONDUIT   1427.16     0  01:35      1.82    1.50    1.00
  YS02001641YS02001644 CONDUIT   1427.87     0  01:35      1.82    4.62    1.00
  YS02001644YS02001647 CONDUIT   1955.15     0  01:35      2.49    1.15    1.00
  YS02001647YS02001649 CONDUIT   1975.80     0  01:35      2.52    1.04    1.00
  YS02001649YS02001757 CONDUIT   2227.32     0  01:35      2.84    1.35    1.00
  YS02001652YS02001649 CONDUIT   1066.77     0  01:37      1.36    0.53    1.00
  YS02001655YS02001652 CONDUIT   1066.33     0  01:37      1.57    0.52    1.00
  YS02001658YS02001655 CONDUIT   1065.72     0  01:37      2.06    0.45    1.00
  YS02001661YS02001658 CONDUIT   1065.37     0  01:37      2.48    0.42    1.00
  YS02001664YS02001661 CONDUIT   1064.72     0  01:37      2.56    0.33    1.00
  YS02001745YS02001748 CONDUIT    676.75     0  01:37      2.47    0.26    1.00
  YS02001748YS02001751 CONDUIT    674.73     0  01:37      1.93    0.34    1.00
  YS02001751YS02001754 CONDUIT    674.12     0  01:37      1.60    0.32    1.00
  YS02001754YS02001757 CONDUIT    673.78     0  01:37      0.86    0.27    1.00
  YS02001757CaochengTiaoxuchi CONDUIT   3623.23     0  01:37      4.88    1.57    1.00
  YS02001759YS02001757 CONDUIT   1555.56     0  01:36      1.98    1.11    1.00
  YS02001762YS02001759 CONDUIT    794.38     0  01:36      1.01    0.92    1.00
  YS02001765YS02001762 CONDUIT    795.11     0  01:36      1.01    0.75    1.00
  YS02001767YS02001765 CONDUIT    796.92     0  01:36      1.01    1.00    1.00
  YS02001770YS02001767 CONDUIT    797.41     0  01:36      1.02    3.16    1.00
  YS02001774YS02001770 CONDUIT    642.75     0  01:36      0.82    0.41    1.00
  YS02001779YS02001774 CONDUIT    644.40     0  01:36      0.83    0.32    1.00
  YS02001783YS02001784 CONDUIT   1169.81     0  01:37      2.33    1.61    1.00
  YS02001784YS02001785 CONDUIT   1171.06     0  01:37      2.33    2.73    1.00
  YS02001786YS02001788 CONDUIT   1170.94     0  01:37      2.49    2.26    0.89
  YS02001788YS02001790 CONDUIT   1182.21     0  01:36      2.72    0.87    0.84
  YS02001790YS02001791 CONDUIT   1290.44     0  01:42      3.43    1.40    0.70
  YS02001791YS02001793 CONDUIT   1245.39     0  01:45      6.77    0.53    0.44
  YS02001793JiankangQianchi CONDUIT   1306.97     0  01:45      2.60    0.10    0.65
  YS02001882YS02001884 CONDUIT    104.38     0  01:34      0.17    0.12    1.00
  YS02001884YS02001887 CONDUIT    145.33     0  01:34      0.19    0.19    1.00
  YS02001887YS02001890 CONDUIT    937.99     0  01:38      1.19    1.61    1.00
  YS02001890YS02001895 CONDUIT    609.37     0  01:35      0.78    0.28    1.00
  YS02001895YS02001898 CONDUIT    609.44     0  01:35      0.78    1.06    1.00
  YS02001898YS02001901 CONDUIT    609.32     0  01:35      0.78    0.39    1.00
  YS02001901YS02001904 CONDUIT    608.17     0  01:35      0.77    0.94    1.00
  YS02001904YS02001907 CONDUIT    607.25     0  01:35      0.77    0.21    1.00
  YS02001907YS02006553 CONDUIT    792.55     0  02:03      0.88    0.93    1.00
  YS02001910YS02001907 CONDUIT   1569.02     0  01:40      2.00    0.88    1.00
  YS02001915YS02001910 CONDUIT   1569.05     0  01:40      2.00    0.78    1.00
  YS02001918YS02001915 CONDUIT    760.98     0  01:35      0.97    0.42    1.00
  YS02001920YS02001918 CONDUIT    743.08     0  01:35      0.95    0.72    1.00
  YS02001923YS02001920 CONDUIT    760.21     0  01:35      1.04    0.34    1.00
  YS02001926YS02001923 CONDUIT    981.80     0  01:35      1.41    1.40    1.00
  YS02001929YS02001926 CONDUIT    593.40     0  01:35      1.23    0.28    1.00
  YS02006553YS02006556 CONDUIT    792.61     0  02:03      1.01    0.68    1.00
  YS02006556YS02006558 CONDUIT    793.91     0  02:03      1.01    0.63    1.00
  YS02006558YS02006561 CONDUIT   1180.81     0  01:34      4.18    2.61    1.00
  YS02006561YS02001783 CONDUIT   1170.01     0  01:37      2.33    0.61    1.00
  YS02163301YS02001633 CONDUIT    880.53     0  01:34      1.12    0.83    1.00
  YS02163601YS02164001 CONDUIT   1427.40     0  01:35      1.82    1.26    1.00
  YS02164001YS02001641 CONDUIT   1427.92     0  01:35      1.82    1.95    1.00
  CC-R1                PUMP       683.00     0  00:00              1.00
  CC-R2                PUMP       683.00     0  00:00              1.00
  CC-S1                PUMP       200.00     0  00:00              1.00
  CC-S2                PUMP       200.00     0  00:00              1.00
  JK-R1                PUMP      1000.00     0  00:00              1.00
  JK-R2                PUMP      1000.00     0  00:00              1.00
  JK-S                 PUMP       300.00     0  00:00              1.00
  
  
  ***************************
  Flow Classification Summary
  ***************************
  
  -------------------------------------------------------------------------------------
                      Adjusted    ---------- Fraction of Time in Flow Class ---------- 
                       /Actual         Up    Down  Sub   Sup   Up    Down  Norm  Inlet 
  Conduit               Length    Dry  Dry   Dry   Crit  Crit  Crit  Crit  Ltd   Ctrl  
  -------------------------------------------------------------------------------------
  1                       1.00   0.00  0.00  0.00  0.00  1.00  0.00  0.00  0.40  0.00
  WS02003060WS02003069    1.00   0.00  0.00  0.00  0.99  0.01  0.00  0.00  0.57  0.00
  WS02003066WSF200        1.00   0.13  0.00  0.00  0.00  0.87  0.00  0.00  0.75  0.00
  WS02003067WS02003066    1.00   0.10  0.02  0.00  0.88  0.00  0.00  0.00  0.00  0.00
  WS02003069WS02003072    1.00   0.00  0.00  0.00  0.99  0.01  0.00  0.00  0.64  0.00
  WS02003072WS02003073    1.00   0.00  0.00  0.00  0.00  0.00  0.00  1.00  0.00  0.00
  WS02004401WS02004402    1.00   0.02  0.00  0.00  0.98  0.00  0.00  0.00  0.00  0.00
  WS02004402WS02004403    1.00   0.02  0.00  0.00  0.97  0.00  0.00  0.00  0.00  0.00
  WS02004403WS02004404    1.00   0.00  0.03  0.00  0.97  0.00  0.00  0.00  0.00  0.00
  WS02004404WS02004405    1.00   0.00  0.00  0.00  1.00  0.00  0.00  0.00  0.01  0.00
  WS02004405WS02004406    1.00   0.00  0.00  0.00  1.00  0.00  0.00  0.00  0.00  0.00
  WS02004406WS02004407    1.00   0.00  0.05  0.00  0.95  0.00  0.00  0.00  0.00  0.00
  WS02004407WS02004409    1.00   0.05  0.00  0.00  0.94  0.01  0.00  0.00  0.94  0.00
  WS02004409WS02004410    1.00   0.05  0.00  0.00  0.95  0.00  0.00  0.00  0.03  0.00
  WS02004410WS02004411    1.00   0.05  0.00  0.00  0.95  0.00  0.00  0.00  0.01  0.00
  WS02004411WS02004412    1.00   0.05  0.00  0.00  0.95  0.00  0.00  0.00  0.00  0.00
  WS02004412WS02004413    1.00   0.05  0.00  0.00  0.94  0.00  0.00  0.00  0.01  0.00
  WS02004413WS02003067    1.00   0.06  0.04  0.00  0.00  0.00  0.90  0.00  0.00  0.00
  WS02006109WS02006110    1.00   0.00  0.01  0.00  0.98  0.00  0.01  0.00  0.00  0.00
  WS02006110WS02006113    1.00   0.01  0.01  0.00  0.98  0.00  0.00  0.00  0.00  0.00
  WS02006111WS02006112    1.00   0.02  0.00  0.00  0.98  0.00  0.00  0.00  0.98  0.00
  WS02006112WS02006115    1.00   0.02  0.00  0.00  0.97  0.00  0.00  0.00  0.00  0.00
  WS02006113WS02006111    1.00   0.02  0.00  0.00  0.00  0.98  0.00  0.00  0.16  0.00
  WS02006115WS02006116    1.00   0.02  0.00  0.00  0.97  0.00  0.00  0.01  0.00  0.00
  WS02006116WS02004401    1.00   0.02  0.00  0.00  0.98  0.00  0.00  0.00  0.00  0.00
  WS02006228WS02006109    1.00   0.00  0.00  0.00  1.00  0.00  0.00  0.00  0.00  0.00
  WS02006229WS02006228    1.00   0.00  0.00  0.00  0.99  0.00  0.00  0.01  0.00  0.00
  WS02006230WS02006229    1.00   0.00  0.00  0.00  0.99  0.00  0.00  0.01  0.02  0.00
  WS02006231WS02006230    1.00   0.00  0.00  0.00  0.38  0.00  0.62  0.00  0.00  0.00
  WS02006232WS02006231    1.00   0.00  0.00  0.00  0.99  0.00  0.01  0.00  0.00  0.00
  WS02006234WS02006232    1.00   0.00  0.00  0.00  1.00  0.00  0.00  0.00  0.06  0.00
  WS02006235WS02006234    1.00   0.00  0.00  0.00  0.88  0.00  0.12  0.00  0.00  0.00
  WS02006238WS02006235    1.00   0.00  0.00  0.00  1.00  0.00  0.00  0.00  0.00  0.00
  WS02006239WS02006238    1.00   0.00  0.00  0.00  1.00  0.00  0.00  0.00  0.12  0.00
  WS02006240WS02006239    1.00   0.00  0.00  0.00  0.61  0.00  0.00  0.39  0.01  0.00
  WS02006242WS02006240    1.00   0.00  0.00  0.00  0.99  0.00  0.01  0.00  0.00  0.00
  WS02006243WS02006242    1.00   0.00  0.00  0.00  0.99  0.00  0.00  0.01  0.44  0.00
  WS02006245WS02006243    1.00   0.00  0.00  0.00  0.84  0.00  0.00  0.16  0.00  0.00
  WS02006247WS02006245    1.00   0.00  0.00  0.00  0.97  0.00  0.00  0.03  0.00  0.00
  WS02006248WS02006247    1.00   0.00  0.00  0.00  0.99  0.00  0.00  0.01  0.36  0.00
  WS02006249WS02006248    1.00   0.00  0.00  0.00  0.59  0.00  0.41  0.00  0.00  0.00
  WS02006251WS02006249    1.00   0.00  0.00  0.00  0.99  0.01  0.00  0.00  0.43  0.00
  WS02006252WS02006251    1.00   0.00  0.34  0.00  0.13  0.00  0.53  0.00  0.00  0.00
  WS02006256WS02006235    1.00   0.00  0.00  0.00  1.00  0.00  0.00  0.00  0.00  0.00
  WSF200WS02003060        1.00   0.00  0.13  0.00  0.30  0.57  0.00  0.00  0.39  0.00
  YS02001580YS02001583    1.00   0.19  0.59  0.00  0.22  0.00  0.00  0.00  0.68  0.00
  YS02001583YS02001586    1.00   0.42  0.30  0.00  0.28  0.00  0.00  0.00  0.68  0.00
  YS02001586YS02001590    1.00   0.13  0.00  0.00  0.43  0.04  0.00  0.40  0.33  0.00
  YS02001590YS02001593    1.00   0.13  0.01  0.00  0.14  0.00  0.72  0.00  0.00  0.00
  YS02001593YS02001596    1.00   0.13  0.00  0.00  0.16  0.01  0.00  0.69  0.02  0.00
  YS02001596YS02001600    1.00   0.13  0.00  0.00  0.22  0.01  0.00  0.63  0.04  0.00
  YS02001600YS02001601    1.00   0.13  0.01  0.00  0.86  0.00  0.00  0.00  0.59  0.00
  YS02001601YS02001602    1.00   0.13  0.01  0.00  0.87  0.00  0.00  0.00  0.00  0.00
  YS02001602YS02001605    1.00   0.13  0.00  0.00  0.87  0.00  0.00  0.00  0.00  0.00
  YS02001605YS02001607    1.00   0.14  0.00  0.00  0.86  0.00  0.00  0.00  0.00  0.00
  YS02001607YS02001610    1.00   0.13  0.01  0.00  0.86  0.00  0.00  0.00  0.01  0.00
  YS02001610YS02001613    1.00   0.13  0.00  0.00  0.87  0.00  0.00  0.00  0.00  0.00
  YS02001613YS02001616    1.00   0.13  0.00  0.00  0.87  0.00  0.00  0.00  0.00  0.00
  YS02001616YS02001619    1.00   0.13  0.00  0.00  0.87  0.00  0.00  0.00  0.00  0.00
  YS02001619YS02001622    1.00   0.13  0.00  0.00  0.87  0.00  0.00  0.00  0.29  0.00
  YS02001622YS02001625    1.00   0.13  0.00  0.00  0.87  0.00  0.00  0.00  0.03  0.00
  YS02001625YS02001629    1.00   0.13  0.04  0.00  0.19  0.00  0.64  0.00  0.00  0.00
  YS02001629YS02163301    1.00   0.15  0.01  0.00  0.84  0.00  0.00  0.00  0.00  0.00
  YS02001633YS02163601    1.00   0.00  0.01  0.00  0.99  0.00  0.00  0.00  0.14  0.00
  YS02001641YS02001644    1.00   0.00  0.01  0.00  0.99  0.00  0.00  0.00  0.00  0.00
  YS02001644YS02001647    1.00   0.00  0.16  0.00  0.84  0.00  0.00  0.00  0.00  0.00
  YS02001647YS02001649    1.00   0.00  0.16  0.00  0.56  0.27  0.00  0.00  0.56  0.00
  YS02001649YS02001757    1.00   0.00  0.00  0.00  0.84  0.16  0.00  0.00  0.41  0.00
  YS02001652YS02001649    1.00   0.00  0.00  0.00  0.97  0.03  0.00  0.00  0.72  0.00
  YS02001655YS02001652    1.00   0.00  0.00  0.00  0.21  0.01  0.00  0.78  0.04  0.00
  YS02001658YS02001655    1.00   0.00  0.14  0.00  0.70  0.16  0.00  0.00  0.66  0.00
  YS02001661YS02001658    1.00   0.14  0.00  0.00  0.54  0.32  0.00  0.00  0.70  0.00
  YS02001664YS02001661    1.00   0.13  0.00  0.00  0.77  0.10  0.00  0.00  0.85  0.00
  YS02001745YS02001748    1.00   0.00  0.00  0.00  0.14  0.01  0.00  0.86  0.05  0.00
  YS02001748YS02001751    1.00   0.00  0.00  0.00  0.86  0.14  0.00  0.00  0.77  0.00
  YS02001751YS02001754    1.00   0.00  0.00  0.00  0.19  0.00  0.00  0.81  0.02  0.00
  YS02001754YS02001757    1.00   0.00  0.00  0.00  1.00  0.00  0.00  0.00  0.80  0.00
  YS02001757CaochengTiaoxuchi    1.00   0.00  0.00  0.00  0.98  0.02  0.00  0.00  0.64  0.00
  YS02001759YS02001757    1.00   0.00  0.00  0.00  0.99  0.01  0.00  0.00  0.55  0.00
  YS02001762YS02001759    1.00   0.00  0.00  0.00  1.00  0.00  0.00  0.00  0.04  0.00
  YS02001765YS02001762    1.00   0.00  0.00  0.00  1.00  0.00  0.00  0.00  0.66  0.00
  YS02001767YS02001765    1.00   0.00  0.00  0.00  1.00  0.00  0.00  0.00  0.01  0.00
  YS02001770YS02001767    1.00   0.00  0.00  0.00  1.00  0.00  0.00  0.00  0.00  0.00
  YS02001774YS02001770    1.00   0.00  0.13  0.00  0.70  0.00  0.17  0.00  0.02  0.00
  YS02001779YS02001774    1.00   0.00  0.00  0.00  1.00  0.00  0.00  0.00  0.77  0.00
  YS02001783YS02001784    1.00   0.00  0.17  0.00  0.83  0.00  0.00  0.00  0.55  0.00
  YS02001784YS02001785    1.00   0.00  0.00  0.00  1.00  0.00  0.00  0.00  0.16  0.00
  YS02001786YS02001788    1.00   0.00  0.00  0.00  0.79  0.21  0.00  0.00  0.00  0.00
  YS02001788YS02001790    1.00   0.00  0.00  0.00  0.20  0.80  0.00  0.00  0.79  0.00
  YS02001790YS02001791    1.00   0.00  0.00  0.00  0.01  0.99  0.00  0.00  0.16  0.00
  YS02001791YS02001793    1.00   0.00  0.00  0.00  0.00  1.00  0.00  0.00  0.01  0.00
  YS02001793JiankangQianchi    1.00   0.00  0.00  0.00  0.98  0.02  0.00  0.00  0.94  0.00
  YS02001882YS02001884    1.00   0.15  0.01  0.00  0.85  0.00  0.00  0.00  0.00  0.00
  YS02001884YS02001887    1.00   0.06  0.05  0.00  0.89  0.00  0.00  0.00  0.00  0.00
  YS02001887YS02001890    1.00   0.00  0.00  0.00  0.97  0.00  0.03  0.00  0.00  0.00
  YS02001890YS02001895    1.00   0.00  0.15  0.00  0.84  0.00  0.00  0.00  0.00  0.00
  YS02001895YS02001898    1.00   0.16  0.00  0.00  0.83  0.00  0.01  0.00  0.00  0.00
  YS02001898YS02001901    1.00   0.16  0.00  0.00  0.84  0.00  0.00  0.00  0.01  0.00
  YS02001901YS02001904    1.00   0.16  0.00  0.00  0.84  0.00  0.00  0.00  0.00  0.00
  YS02001904YS02001907    1.00   0.00  0.16  0.00  0.84  0.00  0.00  0.00  0.00  0.00
  YS02001907YS02006553    1.00   0.00  0.02  0.00  0.98  0.00  0.00  0.00  0.00  0.00
  YS02001910YS02001907    1.00   0.00  0.00  0.00  0.97  0.00  0.00  0.03  0.12  0.00
  YS02001915YS02001910    1.00   0.00  0.00  0.00  0.97  0.03  0.00  0.00  0.14  0.00
  YS02001918YS02001915    1.00   0.00  0.01  0.00  0.98  0.02  0.00  0.00  0.73  0.00
  YS02001920YS02001918    1.00   0.00  0.01  0.00  0.99  0.00  0.00  0.00  0.00  0.00
  YS02001923YS02001920    1.00   0.00  0.00  0.00  1.00  0.00  0.00  0.00  0.91  0.00
  YS02001926YS02001923    1.00   0.00  0.07  0.00  0.08  0.00  0.85  0.00  0.00  0.00
  YS02001929YS02001926    1.00   0.00  0.13  0.00  0.87  0.00  0.00  0.00  0.80  0.00
  YS02006553YS02006556    1.00   0.01  0.00  0.00  0.99  0.00  0.00  0.00  0.03  0.00
  YS02006556YS02006558    1.00   0.00  0.00  0.00  1.00  0.00  0.00  0.00  0.00  0.00
  YS02006558YS02006561    1.00   0.17  0.00  0.00  0.07  0.76  0.00  0.00  0.18  0.00
  YS02006561YS02001783    1.00   0.17  0.00  0.00  0.10  0.73  0.00  0.00  0.67  0.00
  YS02163301YS02001633    1.00   0.00  0.15  0.00  0.85  0.00  0.00  0.00  0.00  0.00
  YS02163601YS02164001    1.00   0.00  0.08  0.00  0.92  0.00  0.00  0.00  0.00  0.00
  YS02164001YS02001641    1.00   0.01  0.07  0.00  0.92  0.00  0.00  0.00  0.05  0.00
  
  
  *************************
  Conduit Surcharge Summary
  *************************
  
  ----------------------------------------------------------------------------
                                                           Hours        Hours 
                         --------- Hours Full --------   Above Full   Capacity
  Conduit                Both Ends  Upstream  Dnstream   Normal Flow   Limited
  ----------------------------------------------------------------------------
  WS02003072WS02003073        0.01      0.01      0.01      1.57         0.01
  WS02004403WS02004404        0.01      0.01      0.01      0.01         0.01
  WS02004404WS02004405        0.01      0.01      0.01      4.18         0.01
  WS02004405WS02004406        0.01      0.01      0.01      0.72         0.01
  WS02006109WS02006110        0.81      0.81      2.78      0.96         0.01
  WS02006110WS02006113        0.01      0.01      2.73      0.01         0.01
  WS02006111WS02006112        0.01      0.01      3.62      0.01         0.01
  WS02006112WS02006115        0.01      0.01      1.05      0.01         0.01
  WS02006228WS02006109        2.68      2.78      2.68      3.84         2.68
  WS02006229WS02006228        2.67      2.69      2.67      3.24         2.65
  WS02006230WS02006229        2.88      3.14      2.88      4.50         2.88
  WS02006231WS02006230        0.82      0.82      1.07      4.33         0.01
  WS02006232WS02006231        1.00      1.00      2.78      1.09         0.01
  WS02006234WS02006232        2.59      2.59      2.78      1.07         1.04
  WS02006235WS02006234        1.42      1.43      2.65      4.21         0.02
  WS02006238WS02006235        2.68      2.68      2.79      0.01         0.01
  WS02006239WS02006238        2.72      2.77      2.73      3.03         2.43
  WS02006240WS02006239        2.68      2.71      2.68      3.03         2.32
  WS02006242WS02006240        2.70      2.70      2.91      3.32         0.01
  WS02006243WS02006242        2.68      2.68      2.80      0.01         0.05
  WS02006245WS02006243        2.64      2.65      2.66      2.18         1.81
  WS02006247WS02006245        2.63      2.67      2.63      4.01         2.62
  WS02006248WS02006247        2.63      2.63      2.65      0.01         0.05
  WS02006249WS02006248        2.61      2.61      2.63      4.00         0.01
  WS02006251WS02006249        2.63      2.64      2.63      3.14         2.53
  WS02006252WS02006251        3.21      3.21      3.25      3.21         0.01
  WS02006256WS02006235        4.24      4.28      7.15      1.31         0.01
  YS02001580YS02001583        0.78      0.78      0.85      0.01         0.01
  YS02001583YS02001586        0.79      0.79      0.96      0.01         0.01
  YS02001586YS02001590        0.96      0.96      1.04      0.01         0.01
  YS02001590YS02001593        1.04      1.04      1.06      1.11         0.01
  YS02001593YS02001596        1.05      1.05      1.15      0.01         0.01
  YS02001596YS02001600        1.20      1.20      1.31      0.01         0.01
  YS02001600YS02001601        1.38      1.38      1.65      0.01         0.01
  YS02001601YS02001602        1.57      1.57      1.68      1.31         0.01
  YS02001602YS02001605        1.53      1.53      1.57      2.32         0.01
  YS02001605YS02001607        1.47      1.53      1.47      1.63         1.47
  YS02001607YS02001610        1.03      1.03      1.06      0.01         0.01
  YS02001610YS02001613        1.03      1.03      1.06      0.01         0.01
  YS02001613YS02001616        0.98      0.98      1.03      0.01         0.01
  YS02001616YS02001619        0.97      0.97      0.98      0.01         0.04
  YS02001619YS02001622        0.97      0.97      0.97      1.02         0.91
  YS02001622YS02001625        0.97      0.97      1.16      0.01         0.01
  YS02001625YS02001629        0.91      0.91      1.16      0.01         0.01
  YS02001629YS02163301        1.16      1.16      1.18      0.01         0.13
  YS02001633YS02163601        1.19      1.19      1.23      0.34         0.32
  YS02001641YS02001644        1.14      1.15      1.14      1.70         1.12
  YS02001644YS02001647        0.92      0.92      1.14      0.03         0.01
  YS02001647YS02001649        0.92      0.92      1.08      0.01         0.01
  YS02001649YS02001757        1.07      1.08      1.16      0.04         0.04
  YS02001652YS02001649        0.88      0.88      1.08      0.01         0.01
  YS02001655YS02001652        0.61      0.61      0.85      0.01         0.01
  YS02001658YS02001655        0.30      0.30      0.61      0.01         0.01
  YS02001661YS02001658        0.05      0.05      0.30      0.01         0.01
  YS02001664YS02001661        0.01      0.01      0.12      0.01         0.01
  YS02001745YS02001748        0.01      0.01      0.22      0.01         0.01
  YS02001748YS02001751        0.27      0.27      0.43      0.01         0.01
  YS02001751YS02001754        0.43      0.43      0.73      0.01         0.01
  YS02001754YS02001757        0.78      0.78      1.16      0.01         0.01
  YS02001757CaochengTiaoxuchi        1.07      1.16      2.12      0.44         0.34
  YS02001759YS02001757        1.05      1.05      1.16      0.07         0.06
  YS02001762YS02001759        1.01      1.01      1.05      0.01         0.02
  YS02001765YS02001762        0.96      0.96      1.01      0.01         0.01
  YS02001767YS02001765        0.91      0.91      0.96      0.01         0.02
  YS02001770YS02001767        0.91      0.91      0.91      0.66         0.61
  YS02001774YS02001770        0.88      0.88      0.99      0.01         0.01
  YS02001779YS02001774        0.71      0.71      0.99      0.01         0.01
  YS02001783YS02001784        0.64      0.67      0.64      0.81         0.64
  YS02001784YS02001785        0.53      0.64      0.53      1.10         0.53
  YS02001786YS02001788        0.01      0.53      0.01      0.93         0.01
  YS02001790YS02001791        0.01      0.01      0.01      0.63         0.01
  YS02001793JiankangQianchi        0.01      0.01      7.66      0.01         0.01
  YS02001882YS02001884        0.61      0.61      0.62      0.01         0.01
  YS02001884YS02001887        0.64      0.64      0.66      0.01         0.01
  YS02001887YS02001890        0.67      0.67      0.68      0.17         0.01
  YS02001890YS02001895        0.60      0.60      0.70      0.01         0.01
  YS02001895YS02001898        0.59      0.59      0.60      0.01         0.01
  YS02001898YS02001901        0.60      0.60      0.64      0.01         0.01
  YS02001901YS02001904        0.63      0.63      0.64      0.01         0.01
  YS02001904YS02001907        0.63      0.63      0.90      0.01         0.01
  YS02001907YS02006553        1.10      1.10      1.18      0.01         0.01
  YS02001910YS02001907        0.70      0.70      0.88      0.01         0.01
  YS02001915YS02001910        0.61      0.61      0.70      0.01         0.01
  YS02001918YS02001915        0.52      0.52      0.61      0.01         0.01
  YS02001920YS02001918        0.52      0.52      0.53      0.01         0.01
  YS02001923YS02001920        0.47      0.47      0.53      0.01         0.01
  YS02001926YS02001923        0.17      0.17      0.20      0.01         0.01
  YS02001929YS02001926        0.01      0.01      0.20      0.01         0.01
  YS02006553YS02006556        0.79      0.79      0.90      0.01         0.01
  YS02006556YS02006558        0.84      0.84      0.93      0.01         0.01
  YS02006558YS02006561        0.55      0.78      0.55      1.03         0.55
  YS02006561YS02001783        0.48      0.48      0.67      0.01         0.01
  YS02163301YS02001633        1.18      1.18      1.21      0.01         0.01
  YS02163601YS02164001        1.15      1.15      1.23      0.03         0.01
  YS02164001YS02001641        1.15      1.15      1.15      0.81         0.77
  
  
  ***************
  Pumping Summary
  ***************
  
  ---------------------------------------------------------------------------------------------------------
                                                  Min       Avg       Max     Total     Power    % Time Off
                        Percent   Number of      Flow      Flow      Flow    Volume     Usage    Pump Curve
  Pump                 Utilized   Start-Ups       LPS       LPS       LPS  10^6 ltr     Kw-hr    Low   High
  ---------------------------------------------------------------------------------------------------------
  CC-R1                   19.87           2      0.00    683.00    683.00     3.909     74.17    0.0    9.4
  CC-R2                   18.96           4      0.00    683.00    683.00     3.730     70.82    0.0   10.1
  CC-S1                   48.65          12      0.00    200.00    200.00     2.802     16.77    0.0    0.0
  CC-S2                   43.12          27      0.00    200.00    200.00     2.484     14.96    0.0    0.0
  JK-R1                    7.94          10      0.00   1000.00   1000.00     2.286     25.78    0.0    0.0
  JK-R2                    3.03           7      0.00   1000.00   1000.00     0.873      6.75    0.0    0.0
  JK-S                    16.38          17      0.00    300.00    300.00     1.415     22.18    0.0    0.0
  

  Analysis begun on:  Wed Jan 15 10:42:42 2025
  Analysis ended on:  Wed Jan 15 10:42:43 2025
  Total elapsed time: 00:00:01