
  EPA STORM WATER MANAGEMENT MODEL - VERSION 5.2 (Build 5.2.4)
  PYSWMM TOOLKIT API - VERSION v1.0 (2023-11-27)
  ------------------------------------------------------------

  WARNING 04: minimum elevation drop used for Conduit WS02004404WS02004405
  WARNING 03: negative offset ignored for Link YS02001904YS02001907
  
  ****************
  Analysis Options
  ****************
  Flow Units ............... LPS
  Process Models:
    Rainfall/Runoff ........ YES
    RDII ................... NO
    Snowmelt ............... NO
    Groundwater ............ NO
    Flow Routing ........... YES
    Ponding Allowed ........ NO
    Water Quality .......... NO
  Infiltration Method ...... HORTON
  Flow Routing Method ...... DYNWAVE
  Surcharge Method ......... EXTRAN
  Starting Date ............ 08/28/2015 08:00:00
  Ending Date .............. 08/28/2015 16:00:00
  Antecedent Dry Days ...... 8.0
  Report Time Step ......... 00:01:00
  Wet Time Step ............ 00:01:00
  Dry Time Step ............ 00:01:00
  Routing Time Step ........ 30.00 sec
  Variable Time Step ....... YES
  Maximum Trials ........... 8
  Number of Threads ........ 4
  Head Tolerance ........... 0.001500 m
  
  
  **************************        Volume         Depth
  Runoff Quantity Continuity     hectare-m            mm
  **************************     ---------       -------
  Total Precipitation ......         2.741        82.621
  Evaporation Loss .........         0.000         0.000
  Infiltration Loss ........         0.105         3.165
  Surface Runoff ...........         2.603        78.474
  Final Storage ............         0.033         0.999
  Continuity Error (%) .....        -0.020
  
  
  **************************        Volume        Volume
  Flow Routing Continuity        hectare-m      10^6 ltr
  **************************     ---------     ---------
  Dry Weather Inflow .......         0.025         0.248
  Wet Weather Inflow .......         2.603        26.026
  Groundwater Inflow .......         0.000         0.000
  RDII Inflow ..............         0.000         0.000
  External Inflow ..........         0.083         0.825
  External Outflow .........         1.993        19.934
  Flooding Loss ............         0.935         9.352
  Evaporation Loss .........         0.000         0.000
  Exfiltration Loss ........         0.000         0.000
  Initial Stored Volume ....         0.243         2.431
  Final Stored Volume ......         0.039         0.389
  Continuity Error (%) .....        -0.492
  
  
  *************************
  Highest Continuity Errors
  *************************
  Node YS02001884 (5.23%)
  Node WS02006256 (-3.51%)
  Node YS02001583 (-3.14%)
  Node JK-storage (-1.43%)
  
  
  ***************************
  Time-Step Critical Elements
  ***************************
  Link WS02006238WS02006235 (29.12%)
  Link WS02004404WS02004405 (19.62%)
  Link WS02003066WSF200 (14.45%)
  Link YS02001793JiankangQianchi (8.72%)
  Link YS02001791YS02001793 (5.95%)
  
  
  ********************************
  Highest Flow Instability Indexes
  ********************************
  Link WS02006113WS02006111 (38)
  Link WS02006252WS02006251 (32)
  Link WS02004404WS02004405 (28)
  Link WS02004403WS02004404 (25)
  Link WS02006238WS02006235 (24)
  
  
  *********************************
  Most Frequent Nonconverging Nodes
  *********************************
  Node CC-1 (35.48%)
  Node CC-2 (35.48%)
  Node JK-1 (35.48%)
  Node JK-2 (35.48%)
  Node WSC (35.48%)
  
  
  *************************
  Routing Time Step Summary
  *************************
  Minimum Time Step           :     0.00 sec
  Average Time Step           :     2.72 sec
  Maximum Time Step           :     6.43 sec
  % of Time in Steady State   :     0.00
  Average Iterations per Step :     4.54
  % of Steps Not Converging   :    35.48
  Time Step Frequencies       :
     30.000 - 13.228 sec      :     0.00 %
     13.228 -  5.833 sec      :    10.63 %
      5.833 -  2.572 sec      :    31.91 %
      2.572 -  1.134 sec      :    40.40 %
      1.134 -  0.500 sec      :    17.06 %
  
  
  ***************************
  Subcatchment Runoff Summary
  ***************************
  
  ------------------------------------------------------------------------------------------------------------------------------
                            Total      Total      Total      Total     Imperv       Perv      Total       Total     Peak  Runoff
                           Precip      Runon       Evap      Infil     Runoff     Runoff     Runoff      Runoff   Runoff   Coeff
  Subcatchment                 mm         mm         mm         mm         mm         mm         mm    10^6 ltr      LPS
  ------------------------------------------------------------------------------------------------------------------------------
  sub60                     82.62       0.00       0.00       1.87      71.51       8.05      79.55        1.05   712.26   0.963
  sub61                     82.62       0.00       0.00       2.72      67.45      11.33      78.78        1.45   991.45   0.954
  sub62                     82.62       0.00       0.00       1.24      74.73       5.37      80.09        2.19  1408.40   0.969
  sub63                     82.62       0.00       0.00       5.06      57.69      18.90      76.60        1.74  1146.87   0.927
  sub64                     82.62       0.00       0.00       2.55      69.02       9.84      78.86        1.89  1167.95   0.955
  sub65                     82.62       0.00       0.00       2.21      70.63       8.53      79.16        2.18  1308.51   0.958
  sub66                     82.62       0.00       0.00       6.33      57.58      17.63      75.21        3.51  1811.00   0.910
  sub67                     82.62       0.00       0.00       1.19      74.77       5.42      80.19        1.49  1051.60   0.971
  sub68                     82.62       0.00       0.00       2.25      69.87       9.32      79.19        2.18  1441.93   0.958
  sub69                     82.62       0.00       0.00       2.05      70.11      10.35      80.46        2.98  1739.09   0.974
  sub70                     82.62       0.00       0.00       6.91      54.36      21.18      75.54        2.18  1021.77   0.914
  sub71                     82.62       0.00       0.00       1.28      74.68       5.33      80.01        2.09  1258.86   0.968
  sub72                     82.62       0.00       0.00       1.14      75.43       4.64      80.07        1.10   617.45   0.969
  
  
  ******************
  Node Depth Summary
  ******************
  
  ---------------------------------------------------------------------------------
                                 Average  Maximum  Maximum  Time of Max    Reported
                                   Depth    Depth      HGL   Occurrence   Max Depth
  Node                 Type       Meters   Meters   Meters  days hr:min      Meters
  ---------------------------------------------------------------------------------
  WS02003060           JUNCTION     0.24     0.38     5.32     0  03:17        0.38
  WS02003066           JUNCTION     0.20     0.30     5.85     0  03:17        0.30
  WS02003067           JUNCTION     0.50     0.70     6.02     0  03:17        0.70
  WS02003069           JUNCTION     0.27     0.43     5.01     0  03:18        0.43
  WS02003072           JUNCTION     0.33     0.50     4.87     0  03:18        0.50
  WS02003073           JUNCTION     0.19     0.30     4.36     0  03:19        0.30
  WS02004401           JUNCTION     0.61     0.87     6.87     0  03:14        0.87
  WS02004402           JUNCTION     0.64     0.90     6.86     0  03:15        0.90
  WS02004403           JUNCTION     0.66     0.92     6.85     0  03:14        0.92
  WS02004404           JUNCTION     0.74     1.02     6.87     0  03:14        1.00
  WS02004405           JUNCTION     0.72     0.97     6.82     0  03:12        0.96
  WS02004406           JUNCTION     0.73     0.96     6.79     0  03:15        0.96
  WS02004407           JUNCTION     0.18     0.30     6.61     0  03:15        0.30
  WS02004409           JUNCTION     0.41     0.67     6.44     0  03:15        0.67
  WS02004410           JUNCTION     0.43     0.68     6.40     0  03:16        0.68
  WS02004411           JUNCTION     0.45     0.69     6.37     0  03:16        0.69
  WS02004412           JUNCTION     0.47     0.70     6.34     0  03:16        0.70
  WS02004413           JUNCTION     0.62     0.86     6.33     0  03:17        0.86
  WS02006109           JUNCTION     0.69     1.64     8.25     0  01:54        1.12
  WS02006110           JUNCTION     0.68     1.85     8.43     0  01:54        1.11
  WS02006111           JUNCTION     0.19     0.29     6.99     0  03:06        0.29
  WS02006112           JUNCTION     0.78     1.12     7.00     0  03:24        1.07
  WS02006113           JUNCTION     0.29     0.46     7.35     0  01:49        0.46
  WS02006115           JUNCTION     0.51     0.77     6.91     0  03:14        0.77
  WS02006116           JUNCTION     0.59     0.85     6.89     0  03:14        0.85
  WS02006228           JUNCTION     0.69     1.38     8.03     0  01:54        1.12
  WS02006229           JUNCTION     0.67     2.29     8.99     0  02:32        2.29
  WS02006230           JUNCTION     0.69     1.57     8.32     0  02:35        1.30
  WS02006231           JUNCTION     0.48     2.24     9.36     0  02:47        2.24
  WS02006232           JUNCTION     0.62     2.18     9.22     0  01:53        2.18
  WS02006234           JUNCTION     0.56     1.96     9.12     0  02:02        1.96
  WS02006235           JUNCTION     0.60     2.00     9.16     0  02:02        2.00
  WS02006238           JUNCTION     0.63     2.15     9.29     0  02:33        2.15
  WS02006239           JUNCTION     0.60     2.03     9.24     0  01:59        2.03
  WS02006240           JUNCTION     0.58     2.02     9.31     0  02:35        2.02
  WS02006242           JUNCTION     0.65     1.55     8.82     0  01:38        1.55
  WS02006243           JUNCTION     0.57     1.48     8.90     0  02:35        1.48
  WS02006245           JUNCTION     0.57     1.56     9.04     0  02:35        1.56
  WS02006247           JUNCTION     0.59     1.47     8.97     0  02:35        1.47
  WS02006248           JUNCTION     0.56     1.10     8.69     0  01:38        1.10
  WS02006249           JUNCTION     0.59     1.09     8.69     0  01:38        1.09
  WS02006251           JUNCTION     0.59     1.29     8.96     0  01:53        1.22
  WS02006252           JUNCTION     0.37     1.50     9.74     0  00:00        1.40
  WS02006256           JUNCTION     1.16     2.35     9.28     0  00:00        2.35
  WSF200               JUNCTION     0.18     0.29     5.52     0  03:17        0.29
  YS02001580           JUNCTION     0.17     1.05     9.59     0  02:05        0.77
  YS02001583           JUNCTION     0.20     1.14     9.64     0  02:05        0.83
  YS02001586           JUNCTION     0.31     1.13     9.30     0  02:05        1.13
  YS02001590           JUNCTION     0.43     1.40     9.26     0  02:32        1.40
  YS02001593           JUNCTION     0.36     1.38     9.24     0  02:32        1.29
  YS02001596           JUNCTION     0.49     1.74     9.15     0  02:32        1.67
  YS02001600           JUNCTION     0.58     1.87     9.00     0  02:32        1.87
  YS02001601           JUNCTION     0.77     2.06     8.90     0  02:04        2.06
  YS02001602           JUNCTION     0.67     1.87     8.77     0  02:10        1.87
  YS02001605           JUNCTION     0.61     1.78     8.68     0  02:32        1.77
  YS02001607           JUNCTION     0.57     1.68     8.53     0  02:32        1.68
  YS02001610           JUNCTION     0.61     1.68     8.48     0  02:12        1.68
  YS02001613           JUNCTION     0.57     1.70     8.54     0  02:32        1.70
  YS02001616           JUNCTION     0.50     1.61     8.52     0  02:22        1.61
  YS02001619           JUNCTION     0.48     1.61     8.54     0  02:22        1.61
  YS02001622           JUNCTION     0.47     1.62     8.52     0  02:32        1.58
  YS02001625           JUNCTION     0.71     1.78     8.38     0  02:12        1.78
  YS02001629           JUNCTION     0.61     1.85     8.40     0  02:15        1.85
  YS02001633           JUNCTION     0.68     2.06     8.51     0  02:23        2.06
  YS02001641           JUNCTION     0.63     1.99     8.43     0  02:35        1.95
  YS02001644           JUNCTION     0.62     1.92     8.35     0  02:17        1.92
  YS02001647           JUNCTION     0.39     1.76     8.37     0  02:24        1.75
  YS02001649           JUNCTION     0.44     1.98     8.37     0  02:24        1.98
  YS02001652           JUNCTION     0.32     1.84     8.44     0  02:24        1.84
  YS02001655           JUNCTION     0.23     1.67     8.52     0  02:24        1.65
  YS02001658           JUNCTION     0.17     1.45     8.59     0  02:24        1.43
  YS02001661           JUNCTION     0.19     1.25     8.66     0  02:24        1.24
  YS02001664           JUNCTION     0.09     0.73     8.66     0  02:24        0.71
  YS02001745           JUNCTION     0.10     0.87     8.39     0  02:24        0.87
  YS02001748           JUNCTION     0.15     1.29     8.37     0  02:24        1.29
  YS02001751           JUNCTION     0.18     1.47     8.35     0  02:24        1.46
  YS02001754           JUNCTION     0.26     1.77     8.38     0  02:15        1.71
  YS02001757           JUNCTION     0.44     2.03     8.29     0  02:24        2.03
  YS02001759           JUNCTION     0.38     2.04     8.41     0  02:24        2.04
  YS02001762           JUNCTION     0.37     2.01     8.41     0  02:23        2.01
  YS02001765           JUNCTION     0.35     1.97     8.42     0  02:23        1.97
  YS02001767           JUNCTION     0.34     1.94     8.43     0  02:24        1.94
  YS02001770           JUNCTION     0.36     1.95     8.44     0  02:22        1.95
  YS02001774           JUNCTION     0.42     2.00     8.42     0  02:25        2.00
  YS02001779           JUNCTION     0.25     1.68     8.37     0  02:18        1.68
  YS02001783           JUNCTION     0.35     1.29     7.44     0  02:12        1.24
  YS02001784           JUNCTION     0.35     1.23     7.30     0  02:32        1.23
  YS02001786           JUNCTION     0.29     0.91     6.94     0  02:32        0.88
  YS02001788           JUNCTION     0.21     0.62     6.60     0  02:22        0.62
  YS02001790           JUNCTION     0.25     0.73     6.37     0  02:22        0.72
  YS02001791           JUNCTION     0.15     0.45     5.92     0  02:23        0.43
  YS02001793           JUNCTION     0.08     0.26     5.09     0  02:22        0.25
  YS02001882           JUNCTION     0.43     1.83     8.55     0  02:33        1.83
  YS02001884           JUNCTION     0.52     1.93     8.55     0  02:33        1.93
  YS02001887           JUNCTION     0.59     1.90     8.43     0  02:33        1.90
  YS02001890           JUNCTION     0.62     1.81     8.32     0  02:12        1.81
  YS02001895           JUNCTION     0.40     1.65     8.40     0  02:33        1.65
  YS02001898           JUNCTION     0.41     1.68     8.42     0  02:33        1.68
  YS02001901           JUNCTION     0.51     1.87     8.48     0  02:32        1.87
  YS02001904           JUNCTION     0.49     1.68     8.31     0  02:33        1.68
  YS02001907           JUNCTION     0.80     1.96     8.25     0  02:12        1.96
  YS02001910           JUNCTION     0.61     2.00     8.51     0  02:13        1.99
  YS02001915           JUNCTION     0.45     1.97     8.69     0  02:25        1.96
  YS02001918           JUNCTION     0.28     1.81     8.88     0  02:13        1.66
  YS02001920           JUNCTION     0.35     2.05     9.06     0  02:13        1.74
  YS02001923           JUNCTION     0.22     1.96     9.22     0  02:13        1.50
  YS02001926           JUNCTION     0.24     1.87     9.32     0  02:13        1.33
  YS02001929           JUNCTION     0.15     1.67     9.36     0  02:13        1.12
  YS02006553           JUNCTION     0.80     2.00     8.29     0  02:32        1.98
  YS02006556           JUNCTION     0.77     2.12     8.43     0  02:32        1.98
  YS02006558           JUNCTION     0.81     2.50     8.77     0  02:32        2.50
  YS02006561           JUNCTION     0.22     0.99     7.65     0  02:12        0.91
  YS02163301           JUNCTION     0.63     2.03     8.55     0  02:32        2.03
  YS02163601           JUNCTION     0.70     2.08     8.48     0  02:35        2.04
  YS02164001           JUNCTION     0.62     2.10     8.56     0  02:32        2.10
  CC-1                 OUTFALL      0.00     0.00     0.00     0  00:00        0.00
  CC-2                 OUTFALL      0.00     0.00     0.00     0  00:00        0.00
  JK-1                 OUTFALL      0.00     0.00     0.00     0  00:00        0.00
  JK-2                 OUTFALL      0.00     0.00     0.00     0  00:00        0.00
  WSC                  OUTFALL      0.19     0.30     0.97     0  03:19        0.30
  CC-storage           STORAGE      0.30     1.15     6.65     0  02:54        1.15
  JK-storage           STORAGE      0.14     2.99     3.79     0  00:00        0.68
  
  
  *******************
  Node Inflow Summary
  *******************
  
  -------------------------------------------------------------------------------------------------
                                  Maximum  Maximum                  Lateral       Total        Flow
                                  Lateral    Total  Time of Max      Inflow      Inflow     Balance
                                   Inflow   Inflow   Occurrence      Volume      Volume       Error
  Node                 Type           LPS      LPS  days hr:min    10^6 ltr    10^6 ltr     Percent
  -------------------------------------------------------------------------------------------------
  WS02003060           JUNCTION     16.53   553.53     0  03:17       0.471        5.64       0.036
  WS02003066           JUNCTION      0.00   536.62     0  03:17           0        5.17       0.030
  WS02003067           JUNCTION      0.00   536.57     0  03:17           0        5.18       0.079
  WS02003069           JUNCTION      0.32   553.33     0  03:18     0.00912        5.65       0.069
  WS02003072           JUNCTION      0.00   552.78     0  03:18           0        5.65       0.131
  WS02003073           JUNCTION      1.82   554.35     0  03:18      0.0519        5.69       0.100
  WS02004401           JUNCTION      0.00   539.58     0  02:46           0        5.27       0.197
  WS02004402           JUNCTION      0.00   540.09     0  03:13           0        5.26       0.200
  WS02004403           JUNCTION      0.00   539.87     0  03:13           0        5.25       0.193
  WS02004404           JUNCTION      0.16   555.59     0  02:45     0.00462        5.25       0.141
  WS02004405           JUNCTION      0.04   602.91     0  03:15     0.00109        5.24       0.170
  WS02004406           JUNCTION      0.00   544.11     0  03:15           0        5.23       0.401
  WS02004407           JUNCTION      0.00   539.11     0  03:15           0        5.21       0.020
  WS02004409           JUNCTION      0.00   538.47     0  03:15           0        5.21       0.051
  WS02004410           JUNCTION      0.00   537.75     0  03:15           0        5.21       0.088
  WS02004411           JUNCTION      0.00   537.47     0  03:16           0         5.2       0.109
  WS02004412           JUNCTION      0.00   537.10     0  03:16           0         5.2       0.145
  WS02004413           JUNCTION      0.00   537.08     0  03:16           0        5.19       0.269
  WS02006109           JUNCTION      1.23   558.90     0  02:57      0.0351        5.31       0.042
  WS02006110           JUNCTION      0.00   559.17     0  02:57           0        5.31       0.121
  WS02006111           JUNCTION      0.00   560.08     0  01:44           0         5.3       0.018
  WS02006112           JUNCTION      0.00   543.96     0  03:06           0         5.3       0.384
  WS02006113           JUNCTION      0.00   573.53     0  01:39           0        5.31       0.040
  WS02006115           JUNCTION      0.00   551.05     0  02:59           0        5.28       0.136
  WS02006116           JUNCTION      0.00   542.61     0  03:06           0        5.27       0.003
  WS02006228           JUNCTION      0.00   557.51     0  02:57           0        5.28      -0.010
  WS02006229           JUNCTION      0.00   557.60     0  02:57           0        5.29       0.154
  WS02006230           JUNCTION     10.28   605.49     0  01:59       0.293        5.29       0.005
  WS02006231           JUNCTION      0.00   603.31     0  01:38           0        4.98      -0.183
  WS02006232           JUNCTION      0.00   599.49     0  01:38           0        5.01       0.444
  WS02006234           JUNCTION      0.00   586.53     0  01:38           0        4.98      -0.467
  WS02006235           JUNCTION      0.00   571.44     0  02:27           0        5.09       0.435
  WS02006238           JUNCTION      0.00   423.20     0  03:04           0         3.9      -0.227
  WS02006239           JUNCTION      0.00   422.27     0  03:17           0        3.84      -0.254
  WS02006240           JUNCTION      0.00   420.55     0  03:17           0        3.79      -0.145
  WS02006242           JUNCTION      0.00   420.53     0  03:17           0        3.78       0.013
  WS02006243           JUNCTION      0.00   421.44     0  03:01           0        3.77      -0.109
  WS02006245           JUNCTION      0.00   421.94     0  03:01           0        3.79       0.611
  WS02006247           JUNCTION      0.00   422.96     0  03:01           0        3.79       0.022
  WS02006248           JUNCTION      0.00   448.84     0  01:52           0        3.81       0.182
  WS02006249           JUNCTION      0.00   478.37     0  01:51           0        4.07       0.438
  WS02006251           JUNCTION      0.08   406.56     0  01:38     0.00219        4.07      -0.020
  WS02006252           JUNCTION      0.00   400.00     0  00:00           0        4.06      -0.056
  WS02006256           JUNCTION      0.00   354.70     0  02:41           0        1.84      -3.394
  WSF200               JUNCTION      0.00   536.70     0  03:17           0        5.17       0.007
  YS02001580           JUNCTION      0.00    72.09     0  02:05           0     0.00412      -0.251
  YS02001583           JUNCTION      0.00   104.53     0  02:04           0      0.0159      -3.048
  YS02001586           JUNCTION   1021.77  1021.80     0  02:26        2.18        2.19       0.044
  YS02001590           JUNCTION      0.00   331.25     0  02:32           0        1.54      -0.037
  YS02001593           JUNCTION      0.00   324.91     0  02:32           0        1.54       0.016
  YS02001596           JUNCTION      0.00   319.04     0  02:32           0        1.54       0.002
  YS02001600           JUNCTION      0.00   319.04     0  02:32           0        1.54       0.025
  YS02001601           JUNCTION   1739.09  2056.59     0  02:25        2.98        4.51       0.020
  YS02001602           JUNCTION      0.00   508.26     0  02:52           0         2.6       0.020
  YS02001605           JUNCTION      0.00   508.38     0  02:52           0        2.48       0.024
  YS02001607           JUNCTION      0.00   508.54     0  02:52           0        2.48       0.082
  YS02001610           JUNCTION      0.00   951.03     0  02:27           0        2.94       0.083
  YS02001613           JUNCTION      0.00   614.64     0  02:27           0        2.39       0.072
  YS02001616           JUNCTION      0.00   614.64     0  02:27           0        2.39       0.022
  YS02001619           JUNCTION   1811.00  1811.00     0  02:26        3.51        5.44       0.002
  YS02001622           JUNCTION      0.00  1053.66     0  02:27           0        4.95       0.004
  YS02001625           JUNCTION      0.00  1504.41     0  02:28           0        5.27       0.170
  YS02001629           JUNCTION      0.00   966.81     0  02:45           0        4.18       0.028
  YS02001633           JUNCTION   1308.71  1351.54     0  02:12        2.18        5.98       0.060
  YS02001641           JUNCTION      0.00  1350.19     0  02:12           0         5.6       0.052
  YS02001644           JUNCTION   1167.99  1815.92     0  02:25         1.9        7.49       0.047
  YS02001647           JUNCTION      0.00  1728.65     0  02:12           0        6.83       0.009
  YS02001649           JUNCTION      0.00  1984.89     0  02:12           0        8.57       0.006
  YS02001652           JUNCTION      0.00  1158.15     0  02:25           0        1.74      -0.055
  YS02001655           JUNCTION      0.15  1158.54     0  02:25     0.00439        1.74       0.040
  YS02001658           JUNCTION      0.00  1157.15     0  02:25           0        1.74      -0.002
  YS02001661           JUNCTION      0.00  1156.95     0  02:25           0        1.74       0.016
  YS02001664           JUNCTION   1146.87  1146.87     0  02:25        1.74        1.74      -0.005
  YS02001745           JUNCTION    712.27   712.27     0  02:25        1.05        1.05       0.080
  YS02001748           JUNCTION      0.04   715.91     0  02:25     0.00128        1.05      -0.115
  YS02001751           JUNCTION      0.01   716.35     0  02:25    0.000313        1.05       0.027
  YS02001754           JUNCTION      0.26   716.77     0  02:25     0.00741        1.06      -0.097
  YS02001757           JUNCTION      0.00  3590.87     0  02:25           0          13       0.045
  YS02001759           JUNCTION    991.49  1502.19     0  02:25        1.45        3.33      -0.002
  YS02001762           JUNCTION      0.00   826.84     0  02:31           0        1.89       0.009
  YS02001765           JUNCTION      0.00   826.26     0  02:31           0        1.89       0.002
  YS02001767           JUNCTION      0.54   825.75     0  02:31      0.0152        1.89       0.016
  YS02001770           JUNCTION   1408.55  1408.55     0  02:25         2.2        2.24      -0.006
  YS02001774           JUNCTION      0.00   840.40     0  02:25           0       0.378       0.334
  YS02001779           JUNCTION      0.01   840.67     0  02:25    0.000142       0.336       0.008
  YS02001783           JUNCTION      0.00  1167.15     0  02:24           0         4.7       0.007
  YS02001784           JUNCTION      1.06  1168.29     0  02:24      0.0302        4.73       0.011
  YS02001786           JUNCTION      0.06  1168.75     0  02:24      0.0016        4.73       0.015
  YS02001788           JUNCTION      0.07  1169.09     0  02:24     0.00202        4.73       0.006
  YS02001790           JUNCTION      0.15  1182.12     0  02:23     0.00442        4.73       0.008
  YS02001791           JUNCTION      0.00  1297.76     0  02:22           0        4.73      -0.013
  YS02001793           JUNCTION      0.00  1254.09     0  02:20           0        4.73      -0.034
  YS02001882           JUNCTION      0.00    35.20     0  02:09           0      0.0128       5.753
  YS02001884           JUNCTION      0.00    36.82     0  02:08           0      0.0487       5.513
  YS02001887           JUNCTION   1052.05  1052.34     0  02:25         1.5        1.54       0.292
  YS02001890           JUNCTION      0.00  1052.80     0  02:25           0         1.5       0.352
  YS02001895           JUNCTION      0.00   518.09     0  02:23           0        1.29       0.133
  YS02001898           JUNCTION      0.00   517.89     0  02:26           0        1.29       0.023
  YS02001901           JUNCTION      0.00   517.77     0  02:26           0        1.29       0.263
  YS02001904           JUNCTION      0.00   517.79     0  02:23           0         1.3       0.222
  YS02001907           JUNCTION      0.00  2673.33     0  02:25           0        4.62       0.392
  YS02001910           JUNCTION      0.00  1881.61     0  02:25           0        3.27       0.220
  YS02001915           JUNCTION   1258.88  1880.89     0  02:25        2.09         3.3       0.052
  YS02001918           JUNCTION      0.00   623.61     0  02:25           0        1.22       0.032
  YS02001920           JUNCTION      2.87   624.36     0  02:25      0.0818        1.21       0.083
  YS02001923           JUNCTION      0.04   619.52     0  02:25     0.00107        1.12      -0.016
  YS02001926           JUNCTION      0.05   619.07     0  02:25     0.00149         1.1       0.003
  YS02001929           JUNCTION    617.45   617.45     0  02:26         1.1         1.1      -0.015
  YS02006553           JUNCTION      0.00   803.98     0  02:41           0        2.64       0.453
  YS02006556           JUNCTION      0.00   804.46     0  02:41           0        2.65       0.312
  YS02006558           JUNCTION   1442.81  1442.81     0  02:25         2.2        4.78       0.073
  YS02006561           JUNCTION      0.00  1167.27     0  02:24           0         4.7      -0.002
  YS02163301           JUNCTION      0.00   968.73     0  02:45           0        4.18       0.042
  YS02163601           JUNCTION      0.11  1351.23     0  02:12     0.00313         5.6       0.092
  YS02164001           JUNCTION      0.00  1351.14     0  02:12           0         5.6       0.051
  CC-1                 OUTFALL       0.00   683.00     0  00:00           0        5.56       0.000
  CC-2                 OUTFALL       0.00   683.00     0  00:00           0        5.56       0.000
  JK-1                 OUTFALL       0.00  1000.00     0  00:00           0        1.56       0.000
  JK-2                 OUTFALL       0.00  1000.00     0  00:00           0        1.56       0.000
  WSC                  OUTFALL       0.00   554.17     0  03:19           0        5.68       0.000
  CC-storage           STORAGE       0.00  3590.27     0  02:25           0        15.2      -0.331
  JK-storage           STORAGE       0.00  1395.09     0  02:20           0        4.89      -1.406
  
  
  **********************
  Node Surcharge Summary
  **********************
  
  Surcharging occurs when water rises above the top of the highest conduit.
  ---------------------------------------------------------------------
                                               Max. Height   Min. Depth
                                   Hours       Above Crown    Below Rim
  Node                 Type      Surcharged         Meters       Meters
  ---------------------------------------------------------------------
  WS02004404           JUNCTION        0.01          0.020        2.760
  WS02006109           JUNCTION        2.24          0.816        1.004
  WS02006110           JUNCTION        0.56          0.936        0.914
  WS02006112           JUNCTION        1.56          0.118        1.562
  WS02006228           JUNCTION        2.22          0.551        1.649
  WS02006229           JUNCTION        2.25          1.493        0.957
  WS02006230           JUNCTION        0.60          0.491        1.079
  WS02006231           JUNCTION        1.22          1.530        0.000
  WS02006232           JUNCTION        2.34          1.480        0.000
  WS02006234           JUNCTION        1.70          1.240        0.000
  WS02006235           JUNCTION        1.98          1.290        0.000
  WS02006238           JUNCTION        2.18          1.430        0.000
  WS02006239           JUNCTION        2.16          1.290        0.000
  WS02006240           JUNCTION        2.20          1.308        0.082
  WS02006242           JUNCTION        2.32          0.820        0.000
  WS02006243           JUNCTION        2.22          0.770        0.000
  WS02006245           JUNCTION        2.21          0.850        0.000
  WS02006247           JUNCTION        2.25          0.760        0.000
  WS02006248           JUNCTION        2.19          0.380        0.000
  WS02006249           JUNCTION        2.22          0.390        0.000
  WS02006251           JUNCTION        1.61          0.258        0.922
  WS02006252           JUNCTION        2.82          1.100        0.000
  WS02006256           JUNCTION        6.08          2.050        0.000
  YS02001580           JUNCTION        0.76          0.450        0.000
  YS02001583           JUNCTION        0.77          0.500        0.000
  YS02001586           JUNCTION        0.88          0.510        0.000
  YS02001590           JUNCTION        0.97          0.750        0.000
  YS02001593           JUNCTION        0.97          0.761        0.079
  YS02001596           JUNCTION        1.09          1.006        0.064
  YS02001600           JUNCTION        1.26          1.190        0.000
  YS02001601           JUNCTION        1.63          1.440        0.000
  YS02001602           JUNCTION        1.50          1.270        0.000
  YS02001605           JUNCTION        1.44          1.180        0.000
  YS02001607           JUNCTION        0.90          0.680        0.000
  YS02001610           JUNCTION        0.93          0.680        0.000
  YS02001613           JUNCTION        0.89          0.700        0.000
  YS02001616           JUNCTION        0.84          0.610        0.000
  YS02001619           JUNCTION        0.82          0.610        0.000
  YS02001622           JUNCTION        0.81          0.620        0.000
  YS02001625           JUNCTION        1.03          0.780        0.000
  YS02001629           JUNCTION        0.70          0.470        0.000
  YS02001633           JUNCTION        1.04          1.035        0.025
  YS02001641           JUNCTION        0.90          0.992        0.108
  YS02001644           JUNCTION        0.83          0.920        0.000
  YS02001647           JUNCTION        0.54          0.759        0.141
  YS02001649           JUNCTION        0.60          0.983        0.067
  YS02001652           JUNCTION        0.43          0.814        0.316
  YS02001655           JUNCTION        0.35          0.666        0.534
  YS02001658           JUNCTION        0.26          0.448        0.852
  YS02001661           JUNCTION        0.09          0.181        1.209
  YS02001748           JUNCTION        0.16          0.214        0.976
  YS02001751           JUNCTION        0.28          0.471        0.729
  YS02001754           JUNCTION        0.35          0.723        0.427
  YS02001757           JUNCTION        0.58          1.027        0.183
  YS02001759           JUNCTION        0.51          1.045        0.165
  YS02001762           JUNCTION        0.49          1.013        0.137
  YS02001765           JUNCTION        0.45          0.972        0.128
  YS02001767           JUNCTION        0.43          0.944        0.086
  YS02001770           JUNCTION        0.42          0.920        0.000
  YS02001774           JUNCTION        0.49          1.002        0.048
  YS02001779           JUNCTION        0.36          0.680        0.000
  YS02001783           JUNCTION        0.67          0.494        1.106
  YS02001784           JUNCTION        0.64          0.430        1.060
  YS02001786           JUNCTION        0.52          0.106        1.324
  YS02001882           JUNCTION        0.61          0.830        0.000
  YS02001884           JUNCTION        0.62          0.870        0.000
  YS02001887           JUNCTION        0.65          0.846        0.104
  YS02001890           JUNCTION        0.67          0.760        0.000
  YS02001895           JUNCTION        0.60          0.654        0.096
  YS02001898           JUNCTION        0.59          0.653        0.087
  YS02001901           JUNCTION        0.64          0.870        0.000
  YS02001904           JUNCTION        0.63          0.682        0.168
  YS02001907           JUNCTION        0.97          0.950        0.000
  YS02001910           JUNCTION        0.71          0.998        0.102
  YS02001915           JUNCTION        0.60          0.969        0.031
  YS02001918           JUNCTION        0.51          0.810        0.000
  YS02001920           JUNCTION        0.52          1.048        0.092
  YS02001923           JUNCTION        0.19          0.746        0.074
  YS02001926           JUNCTION        0.21          0.873        0.027
  YS02001929           JUNCTION        0.07          0.668        0.112
  YS02006553           JUNCTION        0.99          1.003        0.187
  YS02006556           JUNCTION        0.82          1.083        0.267
  YS02006558           JUNCTION        0.80          1.400        0.000
  YS02006561           JUNCTION        0.47          0.186        0.964
  YS02163301           JUNCTION        1.02          1.030        0.000
  YS02163601           JUNCTION        1.07          1.080        0.000
  YS02164001           JUNCTION        0.93          1.100        0.000
  
  
  *********************
  Node Flooding Summary
  *********************
  
  Flooding refers to all water that overflows a node, whether it ponds or not.
  --------------------------------------------------------------------------
                                                             Total   Maximum
                                 Maximum   Time of Max       Flood    Ponded
                        Hours       Rate    Occurrence      Volume     Depth
  Node                 Flooded       LPS   days hr:min    10^6 ltr    Meters
  --------------------------------------------------------------------------
  WS02006231              0.01     72.44      0  02:47       0.000     0.000
  WS02006232              0.01    127.23      0  01:53       0.000     0.000
  WS02006234              0.01    143.25      0  02:02       0.001     0.000
  WS02006235              0.01     56.14      0  02:33       0.000     0.000
  WS02006238              0.01     68.30      0  02:33       0.000     0.000
  WS02006239              0.01      4.39      0  01:59       0.000     0.000
  WS02006242              0.03     31.79      0  02:42       0.001     0.000
  WS02006243              0.01      0.54      0  02:35       0.000     0.000
  WS02006245              0.01      0.33      0  02:35       0.000     0.000
  WS02006247              0.01      0.32      0  02:35       0.000     0.000
  WS02006248              0.23     53.99      0  01:53       0.012     0.000
  WS02006249              1.42     80.70      0  03:24       0.243     0.000
  WS02006252              0.01    245.63      0  00:00       0.000     0.000
  WS02006256              1.70    327.31      0  02:41       0.674     0.000
  YS02001580              0.01     40.35      0  02:05       0.000     0.000
  YS02001583              0.01     42.14      0  02:05       0.000     0.000
  YS02001586              0.62    703.99      0  02:26       0.645     0.000
  YS02001590              0.01      6.79      0  02:32       0.000     0.000
  YS02001600              0.01      8.66      0  02:32       0.000     0.000
  YS02001601              0.80   1658.59      0  02:25       1.916     0.000
  YS02001602              0.58     61.98      0  02:31       0.121     0.000
  YS02001605              0.01      3.07      0  02:32       0.000     0.000
  YS02001607              0.01      0.16      0  02:32       0.000     0.000
  YS02001610              0.53    950.89      0  02:27       1.000     0.000
  YS02001613              0.01      0.19      0  02:32       0.000     0.000
  YS02001616              0.05     15.60      0  02:32       0.000     0.000
  YS02001619              0.09    151.92      0  02:26       0.028     0.000
  YS02001622              0.01     70.73      0  02:32       0.000     0.000
  YS02001625              0.45   1504.32      0  02:28       1.462     0.000
  YS02001629              0.20    217.38      0  02:25       0.061     0.000
  YS02001644              0.24   1592.18      0  02:25       0.647     0.000
  YS02001770              0.04     73.05      0  02:25       0.005     0.000
  YS02001779              0.21    840.58      0  02:25       0.319     0.000
  YS02001882              0.01      0.65      0  02:33       0.000     0.000
  YS02001884              0.01      0.50      0  02:33       0.000     0.000
  YS02001890              0.25    535.41      0  02:25       0.200     0.000
  YS02001901              0.01      0.46      0  02:32       0.000     0.000
  YS02001907              0.45   2672.53      0  02:25       2.016     0.000
  YS02001918              0.01     31.07      0  02:13       0.000     0.000
  YS02006558              0.01     42.88      0  02:32       0.000     0.000
  YS02163301              0.01      0.41      0  02:32       0.000     0.000
  YS02163601              0.01      7.78      0  02:35       0.000     0.000
  YS02164001              0.01      0.97      0  02:32       0.000     0.000
  
  
  **********************
  Storage Volume Summary
  **********************
  
  ------------------------------------------------------------------------------------------------
                         Average    Avg   Evap  Exfil     Maximum    Max    Time of Max    Maximum
                          Volume   Pcnt   Pcnt   Pcnt      Volume   Pcnt     Occurrence    Outflow
  Storage Unit           1000 m³   Full   Loss   Loss     1000 m³   Full    days hr:min        LPS
  ------------------------------------------------------------------------------------------------
  CC-storage               0.835   13.0    0.0    0.0       3.194   49.8       0  02:54    1783.53
  JK-storage               0.007    2.3    0.0    0.0       0.150   51.6       0  00:00    2300.00
  
  
  ***********************
  Outfall Loading Summary
  ***********************
  
  -----------------------------------------------------------
                         Flow       Avg       Max       Total
                         Freq      Flow      Flow      Volume
  Outfall Node           Pcnt       LPS       LPS    10^6 ltr
  -----------------------------------------------------------
  CC-1                  48.60    683.00    683.00       5.564
  CC-2                  48.60    683.00    683.00       5.564
  JK-1                  10.12   1000.00   1000.00       1.561
  JK-2                  10.12   1000.00   1000.00       1.561
  WSC                   99.94    281.92    554.17       5.684
  -----------------------------------------------------------
  System                43.48   3647.92   3900.49      19.934
  
  
  ********************
  Link Flow Summary
  ********************
  
  -----------------------------------------------------------------------------
                                 Maximum  Time of Max   Maximum    Max/    Max/
                                  |Flow|   Occurrence   |Veloc|    Full    Full
  Link                 Type          LPS  days hr:min     m/sec    Flow   Depth
  -----------------------------------------------------------------------------
  1                    CONDUIT    554.17     0  03:19      2.83    0.19    0.30
  WS02003060WS02003069 CONDUIT    553.01     0  03:18      1.64    0.22    0.34
  WS02003066WSF200     CONDUIT    536.70     0  03:17      2.85    0.09    0.22
  WS02003067WS02003066 CONDUIT    536.62     0  03:17      1.21    0.17    0.42
  WS02003069WS02003072 CONDUIT    552.78     0  03:18      1.37    0.27    0.39
  WS02003072WS02003073 CONDUIT    552.53     0  03:18      1.43    1.19    0.37
  WS02004401WS02004402 CONDUIT    540.09     0  03:13      1.22    0.65    0.89
  WS02004402WS02004403 CONDUIT    539.87     0  03:13      1.24    0.78    0.91
  WS02004403WS02004404 CONDUIT    555.43     0  02:45      1.24    0.40    0.96
  WS02004404WS02004405 CONDUIT    602.88     0  03:15      1.45    5.91    0.98
  WS02004405WS02004406 CONDUIT    544.11     0  03:15      1.46    1.07    0.96
  WS02004406WS02004407 CONDUIT    539.11     0  03:15      1.04    0.24    0.63
  WS02004407WS02004409 CONDUIT    538.47     0  03:15      1.59    0.19    0.48
  WS02004409WS02004410 CONDUIT    537.75     0  03:15      1.06    0.70    0.67
  WS02004410WS02004411 CONDUIT    537.47     0  03:16      1.12    0.73    0.69
  WS02004411WS02004412 CONDUIT    537.10     0  03:16      1.22    0.76    0.69
  WS02004412WS02004413 CONDUIT    537.08     0  03:16      1.22    0.36    0.78
  WS02004413WS02003067 CONDUIT    536.57     0  03:17      1.11    0.23    0.59
  WS02006109WS02006110 CONDUIT    559.17     0  02:57      1.11    1.08    1.00
  WS02006110WS02006113 CONDUIT    573.53     0  01:39      1.39    0.52    0.78
  WS02006111WS02006112 CONDUIT    543.96     0  03:06      1.95    0.26    0.67
  WS02006112WS02006115 CONDUIT    551.05     0  02:59      0.90    0.33    0.88
  WS02006113WS02006111 CONDUIT    560.08     0  01:44      2.47    0.67    0.46
  WS02006115WS02006116 CONDUIT    542.61     0  03:06      1.29    0.70    0.78
  WS02006116WS02004401 CONDUIT    539.58     0  02:46      1.21    0.74    0.86
  WS02006228WS02006109 CONDUIT    557.67     0  02:57      1.11    2.44    1.00
  WS02006229WS02006228 CONDUIT    557.51     0  02:57      1.12    1.85    1.00
  WS02006230WS02006229 CONDUIT    557.60     0  02:57      1.45   12.41    1.00
  WS02006231WS02006230 CONDUIT    595.21     0  01:59      1.61    9.03    1.00
  WS02006232WS02006231 CONDUIT    603.31     0  01:38      1.64    1.26    1.00
  WS02006234WS02006232 CONDUIT    599.49     0  01:38      1.56    1.21    1.00
  WS02006235WS02006234 CONDUIT    586.53     0  01:38      1.52    6.19    1.00
  WS02006238WS02006235 CONDUIT    423.67     0  03:04      1.45    0.95    1.00
  WS02006239WS02006238 CONDUIT    423.20     0  03:04      1.20    1.35    1.00
  WS02006240WS02006239 CONDUIT    422.27     0  03:17      1.30    1.33    1.00
  WS02006242WS02006240 CONDUIT    420.55     0  03:17      1.16    1.67    1.00
  WS02006243WS02006242 CONDUIT    420.53     0  03:17      1.42    0.90    1.00
  WS02006245WS02006243 CONDUIT    421.44     0  03:01      1.44    1.25    1.00
  WS02006247WS02006245 CONDUIT    421.94     0  03:01      1.43    3.35    1.00
  WS02006248WS02006247 CONDUIT    422.96     0  03:01      1.47    0.92    1.00
  WS02006249WS02006248 CONDUIT    448.84     0  01:52      1.39    2.46    1.00
  WS02006251WS02006249 CONDUIT    478.37     0  01:51      2.00    1.38    1.00
  WS02006252WS02006251 CONDUIT    406.48     0  01:38     27.12    1.49    1.00
  WS02006256WS02006235 CONDUIT    288.91     0  00:00      4.23    3.06    1.00
  WSF200WS02003060     CONDUIT    537.01     0  03:17      2.06    0.12    0.28
  YS02001580YS02001583 CONDUIT     72.09     0  02:05      0.47    0.28    1.00
  YS02001583YS02001586 CONDUIT    104.53     0  02:04      0.42    0.16    1.00
  YS02001586YS02001590 CONDUIT    331.25     0  02:32      1.26    0.58    1.00
  YS02001590YS02001593 CONDUIT    324.91     0  02:32      1.15    2.04    1.00
  YS02001593YS02001596 CONDUIT    319.04     0  02:32      1.80    0.50    1.00
  YS02001596YS02001600 CONDUIT    319.04     0  02:32      1.29    0.62    1.00
  YS02001600YS02001601 CONDUIT    318.15     0  02:32      1.13    0.55    1.00
  YS02001601YS02001602 CONDUIT    508.26     0  02:52      1.80    1.84    1.00
  YS02001602YS02001605 CONDUIT    508.38     0  02:52      1.80   10.76    1.00
  YS02001605YS02001607 CONDUIT    508.54     0  02:52      1.80    2.79    1.00
  YS02001607YS02001610 CONDUIT    509.84     0  02:52      0.65    0.48    1.00
  YS02001610YS02001613 CONDUIT    614.94     0  02:27      0.78    0.71    1.00
  YS02001613YS02001616 CONDUIT    614.64     0  02:27      0.78    0.53    1.00
  YS02001616YS02001619 CONDUIT    614.64     0  02:27      0.78    1.07    1.00
  YS02001619YS02001622 CONDUIT   1053.66     0  02:27      1.34    1.55    1.00
  YS02001622YS02001625 CONDUIT   1053.52     0  02:27      1.34    0.56    1.00
  YS02001625YS02001629 CONDUIT    966.81     0  02:45      1.23    0.46    1.00
  YS02001629YS02163301 CONDUIT    968.73     0  02:45      1.23    1.19    1.00
  YS02001633YS02163601 CONDUIT   1351.12     0  02:12      1.72    1.42    1.00
  YS02001641YS02001644 CONDUIT   1349.94     0  02:12      1.72    4.36    1.00
  YS02001644YS02001647 CONDUIT   1728.65     0  02:12      2.21    1.02    1.00
  YS02001647YS02001649 CONDUIT   1734.03     0  02:12      2.26    0.92    1.00
  YS02001649YS02001757 CONDUIT   1986.03     0  02:13      2.53    1.21    1.00
  YS02001652YS02001649 CONDUIT   1157.83     0  02:25      1.47    0.57    1.00
  YS02001655YS02001652 CONDUIT   1158.15     0  02:25      1.47    0.56    1.00
  YS02001658YS02001655 CONDUIT   1158.38     0  02:25      1.78    0.49    1.00
  YS02001661YS02001658 CONDUIT   1157.15     0  02:25      2.24    0.45    1.00
  YS02001664YS02001661 CONDUIT   1156.95     0  02:25      2.22    0.36    0.87
  YS02001745YS02001748 CONDUIT    715.87     0  02:25      2.08    0.28    0.94
  YS02001748YS02001751 CONDUIT    716.34     0  02:25      1.61    0.36    1.00
  YS02001751YS02001754 CONDUIT    716.51     0  02:25      1.31    0.35    1.00
  YS02001754YS02001757 CONDUIT    716.87     0  02:25      0.91    0.29    1.00
  YS02001757CaochengTiaoxuchi CONDUIT   3590.27     0  02:25      6.68    1.55    1.00
  YS02001759YS02001757 CONDUIT   1502.56     0  02:25      1.91    1.07    1.00
  YS02001762YS02001759 CONDUIT    826.47     0  02:31      1.05    0.95    1.00
  YS02001765YS02001762 CONDUIT    826.84     0  02:31      1.05    0.78    1.00
  YS02001767YS02001765 CONDUIT    826.26     0  02:31      1.05    1.04    1.00
  YS02001770YS02001767 CONDUIT    825.21     0  02:31      1.05    3.27    1.00
  YS02001774YS02001770 CONDUIT    840.40     0  02:25      1.07    0.54    1.00
  YS02001779YS02001774 CONDUIT    840.67     0  02:25      1.07    0.42    1.00
  YS02001783YS02001784 CONDUIT   1167.23     0  02:24      2.32    1.61    1.00
  YS02001784YS02001785 CONDUIT   1168.69     0  02:24      2.33    2.72    1.00
  YS02001786YS02001788 CONDUIT   1169.02     0  02:24      2.49    2.25    0.89
  YS02001788YS02001790 CONDUIT   1181.97     0  02:23      2.72    0.87    0.84
  YS02001790YS02001791 CONDUIT   1297.76     0  02:22      3.44    1.41    0.71
  YS02001791YS02001793 CONDUIT   1254.09     0  02:20      6.76    0.54    0.43
  YS02001793JiankangQianchi CONDUIT   1395.09     0  02:20     21.43    0.11    0.50
  YS02001882YS02001884 CONDUIT     35.20     0  02:09      0.15    0.04    1.00
  YS02001884YS02001887 CONDUIT     36.82     0  02:08      0.10    0.05    1.00
  YS02001887YS02001890 CONDUIT   1052.80     0  02:25      1.34    1.80    1.00
  YS02001890YS02001895 CONDUIT    518.09     0  02:23      0.66    0.24    1.00
  YS02001895YS02001898 CONDUIT    517.89     0  02:26      0.66    0.90    1.00
  YS02001898YS02001901 CONDUIT    517.77     0  02:26      0.66    0.33    1.00
  YS02001901YS02001904 CONDUIT    517.79     0  02:23      0.66    0.80    1.00
  YS02001904YS02001907 CONDUIT    519.10     0  02:23      0.66    0.18    1.00
  YS02001907YS02006553 CONDUIT    803.98     0  02:41      0.89    0.95    1.00
  YS02001910YS02001907 CONDUIT   1881.07     0  02:25      2.40    1.06    1.00
  YS02001915YS02001910 CONDUIT   1881.61     0  02:25      2.40    0.93    1.00
  YS02001918YS02001915 CONDUIT    624.97     0  02:25      0.80    0.34    1.00
  YS02001920YS02001918 CONDUIT    623.61     0  02:25      0.79    0.60    1.00
  YS02001923YS02001920 CONDUIT    621.49     0  02:25      0.79    0.28    1.00
  YS02001926YS02001923 CONDUIT    619.48     0  02:25      0.93    0.88    1.00
  YS02001929YS02001926 CONDUIT    619.01     0  02:25      1.06    0.29    1.00
  YS02006553YS02006556 CONDUIT    804.46     0  02:41      1.02    0.69    1.00
  YS02006556YS02006558 CONDUIT    804.96     0  02:41      1.02    0.64    1.00
  YS02006558YS02006561 CONDUIT   1167.27     0  02:24      4.13    2.58    1.00
  YS02006561YS02001783 CONDUIT   1167.15     0  02:24      2.32    0.60    1.00
  YS02163301YS02001633 CONDUIT    969.13     0  02:45      1.23    0.91    1.00
  YS02163601YS02164001 CONDUIT   1351.14     0  02:12      1.72    1.20    1.00
  YS02164001YS02001641 CONDUIT   1350.19     0  02:12      1.72    1.84    1.00
  CC-R1                PUMP       683.00     0  00:00              1.00
  CC-R2                PUMP       683.00     0  00:00              1.00
  CC-S1                PUMP       200.00     0  00:00              1.00
  CC-S2                PUMP       200.00     0  00:00              1.00
  JK-R1                PUMP      1000.00     0  00:00              1.00
  JK-R2                PUMP      1000.00     0  00:00              1.00
  JK-S                 PUMP       300.00     0  00:00              1.00
  
  
  ***************************
  Flow Classification Summary
  ***************************
  
  -------------------------------------------------------------------------------------
                      Adjusted    ---------- Fraction of Time in Flow Class ---------- 
                       /Actual         Up    Down  Sub   Sup   Up    Down  Norm  Inlet 
  Conduit               Length    Dry  Dry   Dry   Crit  Crit  Crit  Crit  Ltd   Ctrl  
  -------------------------------------------------------------------------------------
  1                       1.00   0.00  0.00  0.00  0.00  1.00  0.00  0.00  0.41  0.00
  WS02003060WS02003069    1.00   0.00  0.00  0.00  0.97  0.03  0.00  0.00  0.68  0.00
  WS02003066WSF200        1.00   0.05  0.00  0.00  0.00  0.95  0.00  0.00  0.81  0.00
  WS02003067WS02003066    1.00   0.05  0.00  0.00  0.95  0.00  0.00  0.00  0.00  0.00
  WS02003069WS02003072    1.00   0.00  0.00  0.00  0.99  0.01  0.00  0.00  0.71  0.00
  WS02003072WS02003073    1.00   0.00  0.00  0.00  0.00  0.00  0.00  1.00  0.00  0.00
  WS02004401WS02004402    1.00   0.02  0.00  0.00  0.98  0.00  0.00  0.00  0.00  0.00
  WS02004402WS02004403    1.00   0.02  0.00  0.00  0.98  0.00  0.00  0.00  0.00  0.00
  WS02004403WS02004404    1.00   0.00  0.03  0.00  0.97  0.00  0.00  0.00  0.00  0.00
  WS02004404WS02004405    1.00   0.00  0.00  0.00  1.00  0.00  0.00  0.00  0.02  0.00
  WS02004405WS02004406    1.00   0.00  0.00  0.00  1.00  0.00  0.00  0.00  0.00  0.00
  WS02004406WS02004407    1.00   0.00  0.03  0.00  0.97  0.00  0.00  0.00  0.00  0.00
  WS02004407WS02004409    1.00   0.03  0.00  0.00  0.95  0.02  0.00  0.00  0.95  0.00
  WS02004409WS02004410    1.00   0.03  0.00  0.00  0.96  0.00  0.00  0.00  0.00  0.00
  WS02004410WS02004411    1.00   0.04  0.00  0.00  0.96  0.00  0.00  0.00  0.00  0.00
  WS02004411WS02004412    1.00   0.04  0.00  0.00  0.96  0.00  0.00  0.00  0.00  0.00
  WS02004412WS02004413    1.00   0.04  0.00  0.00  0.96  0.00  0.00  0.00  0.00  0.00
  WS02004413WS02003067    1.00   0.04  0.01  0.00  0.00  0.00  0.95  0.00  0.00  0.00
  WS02006109WS02006110    1.00   0.00  0.01  0.00  0.98  0.00  0.01  0.00  0.00  0.00
  WS02006110WS02006113    1.00   0.01  0.01  0.00  0.98  0.00  0.00  0.00  0.00  0.00
  WS02006111WS02006112    1.00   0.02  0.00  0.00  0.98  0.00  0.00  0.00  0.98  0.00
  WS02006112WS02006115    1.00   0.02  0.00  0.00  0.97  0.00  0.00  0.00  0.00  0.00
  WS02006113WS02006111    1.00   0.02  0.00  0.00  0.00  0.98  0.00  0.00  0.17  0.00
  WS02006115WS02006116    1.00   0.02  0.00  0.00  0.97  0.00  0.00  0.01  0.00  0.00
  WS02006116WS02004401    1.00   0.02  0.00  0.00  0.98  0.00  0.00  0.00  0.00  0.00
  WS02006228WS02006109    1.00   0.00  0.00  0.00  1.00  0.00  0.00  0.00  0.01  0.00
  WS02006229WS02006228    1.00   0.00  0.00  0.00  0.99  0.00  0.00  0.01  0.00  0.00
  WS02006230WS02006229    1.00   0.00  0.00  0.00  0.99  0.00  0.00  0.01  0.02  0.00
  WS02006231WS02006230    1.00   0.00  0.00  0.00  0.30  0.00  0.69  0.00  0.00  0.00
  WS02006232WS02006231    1.00   0.00  0.00  0.00  0.98  0.00  0.02  0.00  0.00  0.00
  WS02006234WS02006232    1.00   0.00  0.00  0.00  1.00  0.00  0.00  0.00  0.05  0.00
  WS02006235WS02006234    1.00   0.00  0.00  0.00  0.93  0.00  0.07  0.00  0.00  0.00
  WS02006238WS02006235    1.00   0.00  0.00  0.00  1.00  0.00  0.00  0.00  0.00  0.00
  WS02006239WS02006238    1.00   0.00  0.00  0.00  1.00  0.00  0.00  0.00  0.21  0.00
  WS02006240WS02006239    1.00   0.00  0.00  0.00  0.67  0.00  0.00  0.33  0.05  0.00
  WS02006242WS02006240    1.00   0.00  0.00  0.00  0.99  0.00  0.01  0.00  0.02  0.00
  WS02006243WS02006242    1.00   0.00  0.00  0.00  0.99  0.00  0.00  0.01  0.56  0.00
  WS02006245WS02006243    1.00   0.00  0.00  0.00  0.65  0.00  0.00  0.35  0.01  0.00
  WS02006247WS02006245    1.00   0.00  0.00  0.00  0.98  0.00  0.00  0.01  0.00  0.00
  WS02006248WS02006247    1.00   0.00  0.00  0.00  0.99  0.00  0.00  0.01  0.26  0.00
  WS02006249WS02006248    1.00   0.00  0.00  0.00  0.43  0.00  0.57  0.00  0.00  0.00
  WS02006251WS02006249    1.00   0.00  0.00  0.00  0.99  0.00  0.00  0.00  0.58  0.00
  WS02006252WS02006251    1.00   0.00  0.39  0.00  0.20  0.00  0.41  0.00  0.03  0.00
  WS02006256WS02006235    1.00   0.00  0.00  0.00  0.98  0.02  0.00  0.00  0.00  0.00
  WSF200WS02003060        1.00   0.00  0.05  0.00  0.32  0.63  0.00  0.00  0.62  0.00
  YS02001580YS02001583    1.00   0.26  0.53  0.00  0.22  0.00  0.00  0.00  0.62  0.00
  YS02001583YS02001586    1.00   0.39  0.34  0.00  0.27  0.00  0.00  0.00  0.62  0.00
  YS02001586YS02001590    1.00   0.13  0.00  0.00  0.47  0.04  0.00  0.36  0.38  0.00
  YS02001590YS02001593    1.00   0.13  0.01  0.00  0.14  0.00  0.73  0.00  0.00  0.00
  YS02001593YS02001596    1.00   0.13  0.00  0.00  0.16  0.01  0.00  0.70  0.02  0.00
  YS02001596YS02001600    1.00   0.14  0.00  0.00  0.23  0.01  0.00  0.62  0.05  0.00
  YS02001600YS02001601    1.00   0.13  0.01  0.00  0.86  0.00  0.00  0.00  0.57  0.00
  YS02001601YS02001602    1.00   0.13  0.01  0.00  0.87  0.00  0.00  0.00  0.00  0.00
  YS02001602YS02001605    1.00   0.13  0.00  0.00  0.86  0.00  0.00  0.00  0.00  0.00
  YS02001605YS02001607    1.00   0.14  0.00  0.00  0.86  0.00  0.00  0.00  0.00  0.00
  YS02001607YS02001610    1.00   0.13  0.01  0.00  0.86  0.00  0.00  0.00  0.01  0.00
  YS02001610YS02001613    1.00   0.13  0.00  0.00  0.87  0.00  0.00  0.00  0.00  0.00
  YS02001613YS02001616    1.00   0.13  0.00  0.00  0.87  0.00  0.00  0.00  0.00  0.00
  YS02001616YS02001619    1.00   0.13  0.00  0.00  0.87  0.00  0.00  0.00  0.00  0.00
  YS02001619YS02001622    1.00   0.13  0.00  0.00  0.87  0.00  0.00  0.00  0.26  0.00
  YS02001622YS02001625    1.00   0.13  0.00  0.00  0.87  0.00  0.00  0.00  0.03  0.00
  YS02001625YS02001629    1.00   0.13  0.04  0.00  0.18  0.00  0.65  0.00  0.00  0.00
  YS02001629YS02163301    1.00   0.15  0.01  0.00  0.84  0.00  0.00  0.00  0.00  0.00
  YS02001633YS02163601    1.00   0.00  0.01  0.00  0.99  0.00  0.00  0.00  0.15  0.00
  YS02001641YS02001644    1.00   0.00  0.01  0.00  0.99  0.00  0.00  0.00  0.00  0.00
  YS02001644YS02001647    1.00   0.00  0.17  0.00  0.83  0.00  0.00  0.00  0.00  0.00
  YS02001647YS02001649    1.00   0.00  0.17  0.00  0.52  0.31  0.00  0.00  0.54  0.00
  YS02001649YS02001757    1.00   0.00  0.00  0.00  0.80  0.19  0.00  0.00  0.59  0.00
  YS02001652YS02001649    1.00   0.00  0.00  0.00  0.97  0.03  0.00  0.00  0.72  0.00
  YS02001655YS02001652    1.00   0.00  0.00  0.00  0.21  0.02  0.00  0.78  0.09  0.00
  YS02001658YS02001655    1.00   0.00  0.14  0.00  0.62  0.24  0.00  0.00  0.71  0.00
  YS02001661YS02001658    1.00   0.14  0.00  0.00  0.45  0.41  0.00  0.00  0.71  0.00
  YS02001664YS02001661    1.00   0.13  0.00  0.00  0.72  0.15  0.00  0.00  0.85  0.00
  YS02001745YS02001748    1.00   0.00  0.00  0.00  0.06  0.01  0.00  0.93  0.03  0.00
  YS02001748YS02001751    1.00   0.00  0.00  0.00  0.77  0.23  0.00  0.00  0.77  0.00
  YS02001751YS02001754    1.00   0.00  0.00  0.00  0.14  0.01  0.00  0.84  0.05  0.00
  YS02001754YS02001757    1.00   0.00  0.00  0.00  1.00  0.00  0.00  0.00  0.82  0.00
  YS02001757CaochengTiaoxuchi    1.00   0.00  0.00  0.00  0.18  0.82  0.00  0.00  0.19  0.00
  YS02001759YS02001757    1.00   0.00  0.00  0.00  1.00  0.00  0.00  0.00  0.62  0.00
  YS02001762YS02001759    1.00   0.00  0.00  0.00  1.00  0.00  0.00  0.00  0.06  0.00
  YS02001765YS02001762    1.00   0.00  0.00  0.00  1.00  0.00  0.00  0.00  0.70  0.00
  YS02001767YS02001765    1.00   0.00  0.00  0.00  1.00  0.00  0.00  0.00  0.00  0.00
  YS02001770YS02001767    1.00   0.00  0.00  0.00  1.00  0.00  0.00  0.00  0.00  0.00
  YS02001774YS02001770    1.00   0.00  0.13  0.00  0.72  0.00  0.15  0.00  0.03  0.00
  YS02001779YS02001774    1.00   0.00  0.00  0.00  1.00  0.00  0.00  0.00  0.77  0.00
  YS02001783YS02001784    1.00   0.00  0.17  0.00  0.83  0.00  0.00  0.00  0.54  0.00
  YS02001784YS02001785    1.00   0.00  0.00  0.00  1.00  0.00  0.00  0.00  0.16  0.00
  YS02001786YS02001788    1.00   0.00  0.00  0.00  0.79  0.21  0.00  0.00  0.00  0.00
  YS02001788YS02001790    1.00   0.00  0.00  0.00  0.21  0.79  0.00  0.00  0.78  0.00
  YS02001790YS02001791    1.00   0.00  0.00  0.00  0.01  0.99  0.00  0.00  0.16  0.00
  YS02001791YS02001793    1.00   0.00  0.00  0.00  0.00  1.00  0.00  0.00  0.01  0.00
  YS02001793JiankangQianchi    1.00   0.00  0.00  0.00  0.42  0.58  0.00  0.00  0.83  0.00
  YS02001882YS02001884    1.00   0.15  0.01  0.00  0.84  0.00  0.00  0.00  0.00  0.00
  YS02001884YS02001887    1.00   0.06  0.05  0.00  0.89  0.00  0.00  0.00  0.00  0.00
  YS02001887YS02001890    1.00   0.00  0.00  0.00  0.97  0.00  0.03  0.00  0.00  0.00
  YS02001890YS02001895    1.00   0.00  0.16  0.00  0.84  0.00  0.00  0.00  0.00  0.00
  YS02001895YS02001898    1.00   0.16  0.00  0.00  0.82  0.00  0.02  0.00  0.00  0.00
  YS02001898YS02001901    1.00   0.16  0.00  0.00  0.84  0.00  0.00  0.00  0.01  0.00
  YS02001901YS02001904    1.00   0.16  0.00  0.00  0.84  0.00  0.00  0.00  0.00  0.00
  YS02001904YS02001907    1.00   0.00  0.16  0.00  0.84  0.00  0.00  0.00  0.00  0.00
  YS02001907YS02006553    1.00   0.00  0.02  0.00  0.98  0.00  0.00  0.00  0.00  0.00
  YS02001910YS02001907    1.00   0.00  0.00  0.00  0.97  0.00  0.00  0.03  0.12  0.00
  YS02001915YS02001910    1.00   0.00  0.00  0.00  0.97  0.03  0.00  0.00  0.14  0.00
  YS02001918YS02001915    1.00   0.00  0.01  0.00  0.98  0.02  0.00  0.00  0.72  0.00
  YS02001920YS02001918    1.00   0.00  0.01  0.00  0.99  0.00  0.00  0.00  0.00  0.00
  YS02001923YS02001920    1.00   0.00  0.00  0.00  1.00  0.00  0.00  0.00  0.90  0.00
  YS02001926YS02001923    1.00   0.00  0.07  0.00  0.08  0.00  0.85  0.00  0.00  0.00
  YS02001929YS02001926    1.00   0.00  0.13  0.00  0.87  0.00  0.00  0.00  0.80  0.00
  YS02006553YS02006556    1.00   0.01  0.00  0.00  0.99  0.00  0.00  0.00  0.03  0.00
  YS02006556YS02006558    1.00   0.00  0.00  0.00  1.00  0.00  0.00  0.00  0.00  0.00
  YS02006558YS02006561    1.00   0.17  0.00  0.00  0.07  0.76  0.00  0.00  0.18  0.00
  YS02006561YS02001783    1.00   0.17  0.00  0.00  0.11  0.71  0.00  0.00  0.66  0.00
  YS02163301YS02001633    1.00   0.00  0.15  0.00  0.85  0.00  0.00  0.00  0.00  0.00
  YS02163601YS02164001    1.00   0.00  0.08  0.00  0.92  0.00  0.00  0.00  0.00  0.00
  YS02164001YS02001641    1.00   0.01  0.08  0.00  0.92  0.00  0.00  0.00  0.05  0.00
  
  
  *************************
  Conduit Surcharge Summary
  *************************
  
  ----------------------------------------------------------------------------
                                                           Hours        Hours 
                         --------- Hours Full --------   Above Full   Capacity
  Conduit                Both Ends  Upstream  Dnstream   Normal Flow   Limited
  ----------------------------------------------------------------------------
  WS02003072WS02003073        0.01      0.01      0.01      1.92         0.01
  WS02004403WS02004404        0.01      0.01      0.01      0.01         0.01
  WS02004404WS02004405        0.01      0.01      0.01      3.44         0.01
  WS02004405WS02004406        0.01      0.01      0.01      1.17         0.01
  WS02006109WS02006110        0.54      0.54      2.31      0.80         0.01
  WS02006110WS02006113        0.01      0.01      2.29      0.01         0.01
  WS02006111WS02006112        0.01      0.01      2.36      0.01         0.01
  WS02006112WS02006115        0.01      0.01      1.56      0.01         0.01
  WS02006228WS02006109        2.24      2.31      2.24      2.68         2.23
  WS02006229WS02006228        2.22      2.25      2.22      2.51         2.19
  WS02006230WS02006229        2.38      2.43      2.38      3.90         2.38
  WS02006231WS02006230        0.60      0.60      1.48      3.49         0.01
  WS02006232WS02006231        1.21      1.21      2.34      1.30         0.01
  WS02006234WS02006232        1.99      1.99      2.34      1.24         1.11
  WS02006235WS02006234        1.64      1.70      1.96      3.24         0.13
  WS02006238WS02006235        2.05      2.05      2.34      0.01         0.08
  WS02006239WS02006238        2.16      2.32      2.18      2.45         1.75
  WS02006240WS02006239        2.14      2.23      2.16      2.46         1.69
  WS02006242WS02006240        2.20      2.21      2.37      2.66         0.03
  WS02006243WS02006242        2.23      2.24      2.32      0.01         0.32
  WS02006245WS02006243        2.21      2.23      2.21      2.12         1.32
  WS02006247WS02006245        2.21      2.26      2.21      2.83         2.04
  WS02006248WS02006247        2.21      2.21      2.25      0.01         0.38
  WS02006249WS02006248        2.19      2.19      2.22      2.80         0.01
  WS02006251WS02006249        2.22      2.23      2.22      2.74         1.95
  WS02006252WS02006251        2.82      2.82      2.82      2.82         0.01
  WS02006256WS02006235        3.09      3.35      5.88      1.72         0.02
  YS02001580YS02001583        0.76      0.76      0.81      0.01         0.01
  YS02001583YS02001586        0.77      0.77      0.88      0.01         0.01
  YS02001586YS02001590        0.89      0.89      0.97      0.01         0.01
  YS02001590YS02001593        0.97      0.97      1.00      0.99         0.01
  YS02001593YS02001596        0.99      0.99      1.09      0.01         0.01
  YS02001596YS02001600        1.15      1.15      1.26      0.01         0.01
  YS02001600YS02001601        1.32      1.32      1.63      0.01         0.01
  YS02001601YS02001602        1.50      1.50      1.67      1.28         0.01
  YS02001602YS02001605        1.44      1.44      1.50      2.51         0.01
  YS02001605YS02001607        1.39      1.44      1.39      1.59         1.39
  YS02001607YS02001610        0.90      0.90      0.93      0.01         0.01
  YS02001610YS02001613        0.89      0.89      0.93      0.01         0.01
  YS02001613YS02001616        0.84      0.84      0.89      0.01         0.01
  YS02001616YS02001619        0.82      0.82      0.84      0.08         0.07
  YS02001619YS02001622        0.81      0.82      0.81      1.02         0.80
  YS02001622YS02001625        0.81      0.81      1.03      0.01         0.01
  YS02001625YS02001629        0.70      0.70      1.03      0.01         0.01
  YS02001629YS02163301        1.01      1.01      1.02      0.45         0.44
  YS02001633YS02163601        1.04      1.04      1.07      0.58         0.58
  YS02001641YS02001644        0.83      0.90      0.83      1.70         0.82
  YS02001644YS02001647        0.54      0.54      0.83      0.03         0.01
  YS02001647YS02001649        0.54      0.54      0.60      0.01         0.01
  YS02001649YS02001757        0.58      0.60      0.58      0.50         0.39
  YS02001652YS02001649        0.45      0.45      0.60      0.01         0.01
  YS02001655YS02001652        0.35      0.35      0.43      0.01         0.01
  YS02001658YS02001655        0.26      0.26      0.35      0.01         0.01
  YS02001661YS02001658        0.09      0.09      0.26      0.01         0.01
  YS02001664YS02001661        0.01      0.01      0.13      0.01         0.01
  YS02001745YS02001748        0.01      0.01      0.16      0.01         0.01
  YS02001748YS02001751        0.22      0.22      0.28      0.01         0.01
  YS02001751YS02001754        0.28      0.28      0.35      0.01         0.01
  YS02001754YS02001757        0.37      0.37      0.58      0.01         0.01
  YS02001757CaochengTiaoxuchi        0.12      0.58      0.51      0.63         0.08
  YS02001759YS02001757        0.51      0.51      0.58      0.11         0.12
  YS02001762YS02001759        0.49      0.49      0.51      0.01         0.03
  YS02001765YS02001762        0.45      0.45      0.49      0.01         0.01
  YS02001767YS02001765        0.43      0.43      0.45      0.01         0.07
  YS02001770YS02001767        0.43      0.44      0.43      0.72         0.42
  YS02001774YS02001770        0.42      0.42      0.49      0.01         0.01
  YS02001779YS02001774        0.36      0.36      0.49      0.01         0.01
  YS02001783YS02001784        0.64      0.67      0.64      0.87         0.64
  YS02001784YS02001785        0.52      0.64      0.52      1.16         0.52
  YS02001786YS02001788        0.01      0.52      0.01      1.01         0.01
  YS02001790YS02001791        0.01      0.01      0.01      0.63         0.01
  YS02001882YS02001884        0.61      0.61      0.62      0.01         0.01
  YS02001884YS02001887        0.64      0.64      0.65      0.01         0.01
  YS02001887YS02001890        0.67      0.67      0.69      0.18         0.01
  YS02001890YS02001895        0.60      0.60      0.71      0.01         0.01
  YS02001895YS02001898        0.59      0.59      0.60      0.01         0.01
  YS02001898YS02001901        0.60      0.60      0.64      0.01         0.01
  YS02001901YS02001904        0.63      0.63      0.64      0.01         0.01
  YS02001904YS02001907        0.63      0.63      0.99      0.01         0.01
  YS02001907YS02006553        1.18      1.18      1.25      0.01         0.01
  YS02001910YS02001907        0.71      0.71      0.97      0.05         0.05
  YS02001915YS02001910        0.60      0.60      0.71      0.01         0.01
  YS02001918YS02001915        0.51      0.51      0.60      0.01         0.01
  YS02001920YS02001918        0.51      0.51      0.52      0.01         0.01
  YS02001923YS02001920        0.46      0.46      0.52      0.01         0.01
  YS02001926YS02001923        0.18      0.18      0.21      0.01         0.01
  YS02001929YS02001926        0.07      0.07      0.21      0.01         0.01
  YS02006553YS02006556        0.82      0.82      0.99      0.01         0.01
  YS02006556YS02006558        0.91      0.91      1.01      0.01         0.01
  YS02006558YS02006561        0.54      0.80      0.54      1.11         0.54
  YS02006561YS02001783        0.47      0.47      0.67      0.01         0.01
  YS02163301YS02001633        1.02      1.02      1.06      0.01         0.02
  YS02163601YS02164001        0.92      0.92      1.07      0.38         0.01
  YS02164001YS02001641        0.90      0.92      0.90      0.86         0.68
  
  
  ***************
  Pumping Summary
  ***************
  
  ---------------------------------------------------------------------------------------------------------
                                                  Min       Avg       Max     Total     Power    % Time Off
                        Percent   Number of      Flow      Flow      Flow    Volume     Usage    Pump Curve
  Pump                 Utilized   Start-Ups       LPS       LPS       LPS  10^6 ltr     Kw-hr    Low   High
  ---------------------------------------------------------------------------------------------------------
  CC-R1                   28.58           3      0.00    683.00    683.00     5.563     91.95    0.0   77.7
  CC-R2                   28.58           3      0.00    683.00    683.00     5.563     91.95    0.0   77.7
  CC-S1                   35.63           6      0.00    200.00    200.00     2.031     16.06    0.0   46.7
  CC-S2                   35.63           6      0.00    200.00    200.00     2.031     16.06    0.0   46.7
  JK-R1                    5.55          77      0.00   1000.00   1000.00     1.583      4.60    0.0    0.0
  JK-R2                    5.55          77      0.00   1000.00   1000.00     1.583      4.60    0.0    0.0
  JK-S                    21.42         106      0.00    299.85    300.00     1.830     41.08    0.0    0.0
  

  Analysis begun on:  Thu Jan 16 14:27:42 2025
  Analysis ended on:  Thu Jan 16 14:27:44 2025
  Total elapsed time: 00:00:02