
  EPA STORM WATER MANAGEMENT MODEL - VERSION 5.2 (Build 5.2.4)
  PYSWMM TOOLKIT API - VERSION v1.0 (2023-11-27)
  ------------------------------------------------------------

  WARNING 04: minimum elevation drop used for Conduit WS02004404WS02004405
  WARNING 03: negative offset ignored for Link YS02001904YS02001907
  
  ****************
  Analysis Options
  ****************
  Flow Units ............... LPS
  Process Models:
    Rainfall/Runoff ........ YES
    RDII ................... NO
    Snowmelt ............... NO
    Groundwater ............ NO
    Flow Routing ........... YES
    Ponding Allowed ........ NO
    Water Quality .......... NO
  Infiltration Method ...... HORTON
  Flow Routing Method ...... DYNWAVE
  Surcharge Method ......... EXTRAN
  Starting Date ............ 08/28/2015 08:00:00
  Ending Date .............. 08/28/2015 16:00:00
  Antecedent Dry Days ...... 8.0
  Report Time Step ......... 00:01:00
  Wet Time Step ............ 00:01:00
  Dry Time Step ............ 00:01:00
  Routing Time Step ........ 30.00 sec
  Variable Time Step ....... YES
  Maximum Trials ........... 8
  Number of Threads ........ 4
  Head Tolerance ........... 0.001500 m
  
  
  **************************        Volume         Depth
  Runoff Quantity Continuity     hectare-m            mm
  **************************     ---------       -------
  Total Precipitation ......         2.618        78.936
  Evaporation Loss .........         0.000         0.000
  Infiltration Loss ........         0.102         3.068
  Surface Runoff ...........         2.484        74.889
  Final Storage ............         0.033         0.997
  Continuity Error (%) .....        -0.022
  
  
  **************************        Volume        Volume
  Flow Routing Continuity        hectare-m      10^6 ltr
  **************************     ---------     ---------
  Dry Weather Inflow .......         0.025         0.248
  Wet Weather Inflow .......         2.484        24.836
  Groundwater Inflow .......         0.000         0.000
  RDII Inflow ..............         0.000         0.000
  External Inflow ..........         0.083         0.825
  External Outflow .........         1.964        19.638
  Flooding Loss ............         0.843         8.426
  Evaporation Loss .........         0.000         0.000
  Exfiltration Loss ........         0.000         0.000
  Initial Stored Volume ....         0.243         2.431
  Final Stored Volume ......         0.043         0.429
  Continuity Error (%) .....        -0.539
  
  
  *************************
  Highest Continuity Errors
  *************************
  Node YS02001583 (-5.41%)
  Node YS02001884 (4.88%)
  Node WS02006256 (-3.50%)
  Node JK-storage (-1.48%)
  
  
  ***************************
  Time-Step Critical Elements
  ***************************
  Link WS02006238WS02006235 (30.15%)
  Link WS02004404WS02004405 (22.08%)
  Link WS02003066WSF200 (13.13%)
  Link YS02001793JiankangQianchi (7.84%)
  Link YS02001791YS02001793 (5.60%)
  
  
  ********************************
  Highest Flow Instability Indexes
  ********************************
  Link WS02006113WS02006111 (37)
  Link WS02006252WS02006251 (31)
  Link WS02004404WS02004405 (27)
  Link WS02004403WS02004404 (24)
  Link WS02006238WS02006235 (23)
  
  
  *********************************
  Most Frequent Nonconverging Nodes
  *********************************
  Node CC-1 (34.80%)
  Node CC-2 (34.80%)
  Node JK-1 (34.80%)
  Node JK-2 (34.80%)
  Node WSC (34.80%)
  
  
  *************************
  Routing Time Step Summary
  *************************
  Minimum Time Step           :     0.00 sec
  Average Time Step           :     2.77 sec
  Maximum Time Step           :     6.43 sec
  % of Time in Steady State   :     0.00
  Average Iterations per Step :     4.52
  % of Steps Not Converging   :    34.80
  Time Step Frequencies       :
     30.000 - 13.228 sec      :     0.00 %
     13.228 -  5.833 sec      :    12.21 %
      5.833 -  2.572 sec      :    29.98 %
      2.572 -  1.134 sec      :    41.74 %
      1.134 -  0.500 sec      :    16.07 %
  
  
  ***************************
  Subcatchment Runoff Summary
  ***************************
  
  ------------------------------------------------------------------------------------------------------------------------------
                            Total      Total      Total      Total     Imperv       Perv      Total       Total     Peak  Runoff
                           Precip      Runon       Evap      Infil     Runoff     Runoff     Runoff      Runoff   Runoff   Coeff
  Subcatchment                 mm         mm         mm         mm         mm         mm         mm    10^6 ltr      LPS
  ------------------------------------------------------------------------------------------------------------------------------
  sub60                     78.94       0.00       0.00       1.85      68.26       7.62      75.88        1.00   636.29   0.961
  sub61                     78.94       0.00       0.00       2.69      64.39      10.74      75.13        1.38   882.47   0.952
  sub62                     78.94       0.00       0.00       1.24      71.34       5.08      76.42        2.09  1237.12   0.968
  sub63                     78.94       0.00       0.00       4.94      55.08      17.96      73.04        1.66   983.88   0.925
  sub64                     78.94       0.00       0.00       2.50      65.89       9.35      75.24        1.81  1011.46   0.953
  sub65                     78.94       0.00       0.00       2.16      67.42       8.10      75.52        2.08  1129.31   0.957
  sub66                     78.94       0.00       0.00       6.07      54.97      16.82      71.79        3.35  1478.92   0.909
  sub67                     78.94       0.00       0.00       1.19      71.38       5.13      76.51        1.42   953.79   0.969
  sub68                     78.94       0.00       0.00       2.22      66.70       8.83      75.53        2.08  1268.46   0.957
  sub69                     78.94       0.00       0.00       1.99      66.98       9.86      76.84        2.84  1502.91   0.973
  sub70                     78.94       0.00       0.00       6.57      51.93      20.27      72.20        2.09   832.63   0.915
  sub71                     78.94       0.00       0.00       1.27      71.29       5.05      76.34        2.00  1094.05   0.967
  sub72                     78.94       0.00       0.00       1.13      72.01       4.40      76.41        1.05   529.80   0.968
  
  
  ******************
  Node Depth Summary
  ******************
  
  ---------------------------------------------------------------------------------
                                 Average  Maximum  Maximum  Time of Max    Reported
                                   Depth    Depth      HGL   Occurrence   Max Depth
  Node                 Type       Meters   Meters   Meters  days hr:min      Meters
  ---------------------------------------------------------------------------------
  WS02003060           JUNCTION     0.24     0.38     5.32     0  03:11        0.38
  WS02003066           JUNCTION     0.19     0.30     5.85     0  03:10        0.30
  WS02003067           JUNCTION     0.50     0.70     6.02     0  03:10        0.70
  WS02003069           JUNCTION     0.27     0.43     5.01     0  03:11        0.43
  WS02003072           JUNCTION     0.33     0.50     4.87     0  03:12        0.50
  WS02003073           JUNCTION     0.18     0.30     4.36     0  03:13        0.30
  WS02004401           JUNCTION     0.61     0.88     6.88     0  03:09        0.87
  WS02004402           JUNCTION     0.64     0.90     6.86     0  03:09        0.90
  WS02004403           JUNCTION     0.66     0.92     6.85     0  03:09        0.92
  WS02004404           JUNCTION     0.73     1.04     6.89     0  03:08        1.00
  WS02004405           JUNCTION     0.72     0.97     6.82     0  03:08        0.96
  WS02004406           JUNCTION     0.73     0.96     6.79     0  03:08        0.96
  WS02004407           JUNCTION     0.18     0.30     6.61     0  03:08        0.30
  WS02004409           JUNCTION     0.40     0.67     6.44     0  03:09        0.67
  WS02004410           JUNCTION     0.43     0.68     6.40     0  03:09        0.68
  WS02004411           JUNCTION     0.44     0.69     6.37     0  03:09        0.69
  WS02004412           JUNCTION     0.46     0.70     6.34     0  03:09        0.70
  WS02004413           JUNCTION     0.62     0.86     6.33     0  03:10        0.86
  WS02006109           JUNCTION     0.69     1.43     8.05     0  02:35        1.11
  WS02006110           JUNCTION     0.68     1.58     8.16     0  02:35        1.00
  WS02006111           JUNCTION     0.19     0.29     7.00     0  02:45        0.29
  WS02006112           JUNCTION     0.77     1.10     6.99     0  03:16        1.07
  WS02006113           JUNCTION     0.29     0.47     7.36     0  02:45        0.45
  WS02006115           JUNCTION     0.50     0.77     6.91     0  03:06        0.77
  WS02006116           JUNCTION     0.58     0.85     6.89     0  03:09        0.85
  WS02006228           JUNCTION     0.69     1.37     8.02     0  02:45        1.37
  WS02006229           JUNCTION     0.67     1.41     8.10     0  02:36        1.41
  WS02006230           JUNCTION     0.68     1.68     8.42     0  02:36        1.48
  WS02006231           JUNCTION     0.48     2.24     9.36     0  02:30        1.77
  WS02006232           JUNCTION     0.62     2.18     9.22     0  02:18        2.18
  WS02006234           JUNCTION     0.56     1.96     9.12     0  01:53        1.96
  WS02006235           JUNCTION     0.60     2.00     9.16     0  01:42        2.00
  WS02006238           JUNCTION     0.63     2.15     9.29     0  01:42        2.15
  WS02006239           JUNCTION     0.60     2.03     9.24     0  01:42        2.03
  WS02006240           JUNCTION     0.57     2.10     9.39     0  02:18        2.10
  WS02006242           JUNCTION     0.64     1.55     8.82     0  01:42        1.55
  WS02006243           JUNCTION     0.56     1.48     8.90     0  01:53        1.48
  WS02006245           JUNCTION     0.57     1.56     9.04     0  01:53        1.56
  WS02006247           JUNCTION     0.59     1.47     8.97     0  01:53        1.47
  WS02006248           JUNCTION     0.56     1.10     8.69     0  01:38        1.10
  WS02006249           JUNCTION     0.58     1.09     8.69     0  01:35        1.09
  WS02006251           JUNCTION     0.58     1.32     8.99     0  02:42        1.21
  WS02006252           JUNCTION     0.37     1.50     9.74     0  00:00        0.82
  WS02006256           JUNCTION     1.16     2.35     9.28     0  00:00        2.35
  WSF200               JUNCTION     0.17     0.29     5.52     0  03:10        0.29
  YS02001580           JUNCTION     0.17     1.05     9.59     0  01:42        0.79
  YS02001583           JUNCTION     0.20     1.14     9.64     0  01:42        0.82
  YS02001586           JUNCTION     0.32     1.13     9.30     0  01:42        1.13
  YS02001590           JUNCTION     0.43     1.40     9.26     0  01:42        1.37
  YS02001593           JUNCTION     0.37     1.37     9.23     0  01:40        1.32
  YS02001596           JUNCTION     0.50     1.69     9.11     0  01:42        1.66
  YS02001600           JUNCTION     0.60     1.87     9.00     0  01:40        1.87
  YS02001601           JUNCTION     0.78     2.06     8.90     0  01:40        2.06
  YS02001602           JUNCTION     0.67     1.87     8.77     0  01:42        1.87
  YS02001605           JUNCTION     0.62     1.78     8.68     0  01:53        1.78
  YS02001607           JUNCTION     0.57     1.65     8.50     0  02:09        1.65
  YS02001610           JUNCTION     0.61     1.68     8.48     0  01:42        1.68
  YS02001613           JUNCTION     0.57     1.67     8.51     0  01:47        1.67
  YS02001616           JUNCTION     0.51     1.61     8.52     0  01:44        1.61
  YS02001619           JUNCTION     0.48     1.61     8.54     0  01:46        1.61
  YS02001622           JUNCTION     0.47     1.58     8.48     0  01:49        1.58
  YS02001625           JUNCTION     0.71     1.78     8.38     0  01:42        1.78
  YS02001629           JUNCTION     0.61     1.85     8.40     0  01:42        1.85
  YS02001633           JUNCTION     0.68     2.04     8.49     0  01:46        2.02
  YS02001641           JUNCTION     0.63     1.95     8.39     0  01:46        1.94
  YS02001644           JUNCTION     0.62     1.92     8.35     0  01:46        1.92
  YS02001647           JUNCTION     0.39     1.81     8.42     0  01:47        1.75
  YS02001649           JUNCTION     0.43     2.05     8.44     0  01:46        1.97
  YS02001652           JUNCTION     0.31     2.03     8.62     0  01:47        1.86
  YS02001655           JUNCTION     0.23     2.17     9.02     0  01:46        1.68
  YS02001658           JUNCTION     0.17     2.26     9.40     0  01:46        1.41
  YS02001661           JUNCTION     0.19     1.81     9.22     0  01:47        1.23
  YS02001664           JUNCTION     0.09     0.96     8.88     0  01:47        0.77
  YS02001745           JUNCTION     0.09     2.18     9.70     0  01:47        0.89
  YS02001748           JUNCTION     0.15     2.27     9.35     0  01:47        1.27
  YS02001751           JUNCTION     0.18     2.20     9.08     0  01:47        1.45
  YS02001754           JUNCTION     0.25     2.20     8.81     0  01:47        1.69
  YS02001757           JUNCTION     0.43     2.21     8.47     0  01:47        2.01
  YS02001759           JUNCTION     0.37     2.20     8.56     0  01:47        2.01
  YS02001762           JUNCTION     0.36     2.15     8.55     0  01:47        1.99
  YS02001765           JUNCTION     0.34     2.09     8.54     0  01:47        1.95
  YS02001767           JUNCTION     0.34     2.03     8.52     0  01:45        1.93
  YS02001770           JUNCTION     0.35     1.95     8.44     0  01:47        1.95
  YS02001774           JUNCTION     0.41     2.00     8.42     0  01:47        2.00
  YS02001779           JUNCTION     0.24     1.68     8.37     0  01:45        1.68
  YS02001783           JUNCTION     0.35     1.35     7.49     0  01:45        1.24
  YS02001784           JUNCTION     0.36     1.20     7.27     0  01:45        1.13
  YS02001786           JUNCTION     0.29     0.93     6.96     0  01:45        0.87
  YS02001788           JUNCTION     0.21     0.63     6.60     0  01:45        0.62
  YS02001790           JUNCTION     0.25     0.73     6.37     0  01:49        0.73
  YS02001791           JUNCTION     0.16     0.44     5.91     0  01:50        0.43
  YS02001793           JUNCTION     0.08     0.26     5.09     0  02:08        0.25
  YS02001882           JUNCTION     0.44     1.82     8.54     0  01:43        1.67
  YS02001884           JUNCTION     0.52     1.88     8.50     0  01:43        1.77
  YS02001887           JUNCTION     0.59     1.90     8.43     0  01:43        1.85
  YS02001890           JUNCTION     0.62     1.81     8.32     0  01:43        1.81
  YS02001895           JUNCTION     0.41     1.66     8.41     0  01:43        1.64
  YS02001898           JUNCTION     0.41     1.69     8.42     0  01:44        1.69
  YS02001901           JUNCTION     0.52     1.75     8.36     0  01:44        1.75
  YS02001904           JUNCTION     0.50     1.66     8.29     0  01:45        1.64
  YS02001907           JUNCTION     0.80     1.96     8.25     0  01:45        1.96
  YS02001910           JUNCTION     0.62     2.04     8.54     0  01:45        2.04
  YS02001915           JUNCTION     0.45     2.00     8.72     0  01:43        1.99
  YS02001918           JUNCTION     0.27     1.81     8.88     0  01:45        1.81
  YS02001920           JUNCTION     0.35     2.14     9.15     0  01:45        1.72
  YS02001923           JUNCTION     0.22     2.03     9.29     0  01:45        1.41
  YS02001926           JUNCTION     0.23     1.90     9.35     0  01:45        1.22
  YS02001929           JUNCTION     0.15     1.78     9.47     0  01:45        1.15
  YS02006553           JUNCTION     0.80     2.00     8.28     0  01:45        1.98
  YS02006556           JUNCTION     0.77     2.00     8.31     0  01:45        1.98
  YS02006558           JUNCTION     0.82     2.05     8.32     0  01:45        2.03
  YS02006561           JUNCTION     0.22     1.09     7.75     0  01:45        0.91
  YS02163301           JUNCTION     0.63     1.92     8.44     0  01:46        1.92
  YS02163601           JUNCTION     0.70     2.04     8.44     0  01:46        2.02
  YS02164001           JUNCTION     0.62     1.96     8.42     0  01:46        1.94
  CC-1                 OUTFALL      0.00     0.00     0.00     0  00:00        0.00
  CC-2                 OUTFALL      0.00     0.00     0.00     0  00:00        0.00
  JK-1                 OUTFALL      0.00     0.00     0.00     0  00:00        0.00
  JK-2                 OUTFALL      0.00     0.00     0.00     0  00:00        0.00
  WSC                  OUTFALL      0.18     0.30     0.97     0  03:13        0.30
  CC-storage           STORAGE      0.34     1.09     6.59     0  02:31        1.09
  JK-storage           STORAGE      0.14     2.99     3.79     0  00:00        0.68
  
  
  *******************
  Node Inflow Summary
  *******************
  
  -------------------------------------------------------------------------------------------------
                                  Maximum  Maximum                  Lateral       Total        Flow
                                  Lateral    Total  Time of Max      Inflow      Inflow     Balance
                                   Inflow   Inflow   Occurrence      Volume      Volume       Error
  Node                 Type           LPS      LPS  days hr:min    10^6 ltr    10^6 ltr     Percent
  -------------------------------------------------------------------------------------------------
  WS02003060           JUNCTION     16.53   554.46     0  03:10       0.471        5.45       0.036
  WS02003066           JUNCTION      0.00   537.73     0  03:10           0        4.98       0.029
  WS02003067           JUNCTION      0.00   537.67     0  03:10           0        4.98       0.081
  WS02003069           JUNCTION      0.32   554.70     0  03:11     0.00912        5.46       0.070
  WS02003072           JUNCTION      0.00   554.47     0  03:12           0        5.45       0.132
  WS02003073           JUNCTION      1.82   556.13     0  03:12      0.0519         5.5       0.099
  WS02004401           JUNCTION      0.00   546.07     0  02:59           0        5.08       0.201
  WS02004402           JUNCTION      0.00   545.92     0  02:59           0        5.07       0.205
  WS02004403           JUNCTION      0.00   548.84     0  02:59           0        5.06       0.199
  WS02004404           JUNCTION      0.16   559.05     0  03:08     0.00462        5.05       0.139
  WS02004405           JUNCTION      0.04   601.71     0  03:08     0.00109        5.05       0.175
  WS02004406           JUNCTION      0.00   544.70     0  03:08           0        5.04       0.415
  WS02004407           JUNCTION      0.00   539.79     0  03:08           0        5.02       0.019
  WS02004409           JUNCTION      0.00   539.07     0  03:08           0        5.02       0.050
  WS02004410           JUNCTION      0.00   538.64     0  03:09           0        5.01       0.087
  WS02004411           JUNCTION      0.00   538.40     0  03:09           0        5.01       0.109
  WS02004412           JUNCTION      0.00   538.08     0  03:09           0           5       0.146
  WS02004413           JUNCTION      0.00   537.90     0  03:10           0           5       0.273
  WS02006109           JUNCTION      1.23   590.28     0  02:58      0.0351        5.12       0.053
  WS02006110           JUNCTION      0.00   591.53     0  02:58           0        5.12       0.119
  WS02006111           JUNCTION      0.00   571.19     0  02:45           0        5.11       0.019
  WS02006112           JUNCTION      0.00   556.53     0  02:45           0        5.11       0.400
  WS02006113           JUNCTION      0.00   603.84     0  02:45           0        5.11       0.042
  WS02006115           JUNCTION      0.00   555.56     0  02:45           0        5.09       0.139
  WS02006116           JUNCTION      0.00   548.45     0  02:45           0        5.08      -0.011
  WS02006228           JUNCTION      0.00   589.78     0  02:58           0        5.08      -0.008
  WS02006229           JUNCTION      0.00   586.05     0  02:45           0        5.09       0.141
  WS02006230           JUNCTION     10.28   619.36     0  03:18       0.293        5.09      -0.009
  WS02006231           JUNCTION      0.00   641.80     0  03:18           0        4.79      -0.152
  WS02006232           JUNCTION      0.00   634.59     0  03:18           0        4.81       0.457
  WS02006234           JUNCTION      0.00   604.55     0  03:18           0        4.79      -0.487
  WS02006235           JUNCTION      0.00   567.91     0  03:15           0         4.9       0.451
  WS02006238           JUNCTION      0.00   423.15     0  03:14           0        3.71      -0.163
  WS02006239           JUNCTION      0.00   424.11     0  03:14           0        3.64      -0.227
  WS02006240           JUNCTION      0.00   421.83     0  03:14           0        3.59      -0.118
  WS02006242           JUNCTION      0.00   422.39     0  03:14           0        3.58      -0.038
  WS02006243           JUNCTION      0.00   421.73     0  03:14           0        3.56      -0.128
  WS02006245           JUNCTION      0.00   420.62     0  03:14           0        3.58       0.567
  WS02006247           JUNCTION      0.00   421.06     0  02:46           0        3.58       0.022
  WS02006248           JUNCTION      0.00   421.15     0  02:46           0         3.6       0.179
  WS02006249           JUNCTION      0.00   474.82     0  03:41           0        3.87       0.473
  WS02006251           JUNCTION      0.08   406.91     0  01:35     0.00219        3.87      -0.017
  WS02006252           JUNCTION      0.00   400.00     0  00:00           0        3.86      -0.052
  WS02006256           JUNCTION      0.00   349.99     0  02:16           0        1.85      -3.384
  WSF200               JUNCTION      0.00   537.77     0  03:10           0        4.98       0.007
  YS02001580           JUNCTION      0.00   125.22     0  01:42           0     0.00432      -1.045
  YS02001583           JUNCTION      0.00   178.16     0  01:42           0      0.0152      -5.129
  YS02001586           JUNCTION    832.63   832.63     0  01:53        2.09         2.1       0.067
  YS02001590           JUNCTION      0.00   318.88     0  02:18           0        1.53      -0.036
  YS02001593           JUNCTION      0.00   318.79     0  02:18           0        1.53       0.022
  YS02001596           JUNCTION      0.00   317.92     0  02:01           0        1.53       0.004
  YS02001600           JUNCTION      0.00   317.96     0  01:51           0        1.53       0.017
  YS02001601           JUNCTION   1502.91  1820.48     0  01:51        2.84        4.38       0.019
  YS02001602           JUNCTION      0.00   529.08     0  01:42           0        2.59       0.019
  YS02001605           JUNCTION      0.00   528.50     0  01:42           0        2.48       0.022
  YS02001607           JUNCTION      0.00   528.10     0  01:42           0        2.48       0.086
  YS02001610           JUNCTION      0.00   832.39     0  01:53           0        2.85       0.090
  YS02001613           JUNCTION      0.00   539.82     0  01:41           0        2.32       0.074
  YS02001616           JUNCTION      0.00   548.71     0  01:41           0        2.32       0.030
  YS02001619           JUNCTION   1478.92  1478.92     0  01:53        3.35        5.29       0.005
  YS02001622           JUNCTION      0.00   990.67     0  01:51           0        4.91       0.001
  YS02001625           JUNCTION      0.00  1405.70     0  01:54           0        5.15       0.180
  YS02001629           JUNCTION      0.00   972.55     0  02:16           0        4.21       0.021
  YS02001633           JUNCTION   1129.51  1383.47     0  01:44        2.08        5.97       0.060
  YS02001641           JUNCTION      0.00  1385.16     0  01:44           0        5.65       0.052
  YS02001644           JUNCTION   1011.50  1817.51     0  01:44        1.81        7.46       0.045
  YS02001647           JUNCTION      0.00  1818.19     0  01:45           0        6.89       0.006
  YS02001649           JUNCTION      0.00  2085.96     0  01:44           0        8.55       0.004
  YS02001652           JUNCTION      0.00  1012.21     0  01:50           0        1.66      -0.080
  YS02001655           JUNCTION      0.15  1011.78     0  01:50     0.00439        1.66       0.038
  YS02001658           JUNCTION      0.00  1011.70     0  01:50           0        1.66      -0.015
  YS02001661           JUNCTION      0.00  1010.27     0  01:50           0        1.66       0.000
  YS02001664           JUNCTION    983.88   983.88     0  01:50        1.66        1.66      -0.015
  YS02001745           JUNCTION    636.30   636.30     0  01:50       0.997       0.998       0.090
  YS02001748           JUNCTION      0.04   651.45     0  01:50     0.00128           1      -0.223
  YS02001751           JUNCTION      0.01   652.49     0  01:50    0.000313        1.01       0.040
  YS02001754           JUNCTION      0.26   652.35     0  01:50     0.00741        1.02      -0.065
  YS02001757           JUNCTION      0.00  3430.65     0  01:56           0        12.8       0.044
  YS02001759           JUNCTION    882.51  1411.95     0  01:49        1.38        3.21      -0.009
  YS02001762           JUNCTION      0.00   825.43     0  01:57           0        1.83       0.004
  YS02001765           JUNCTION      0.00   824.52     0  01:57           0        1.83       0.012
  YS02001767           JUNCTION      0.54   824.02     0  01:57      0.0152        1.83      -0.006
  YS02001770           JUNCTION   1237.28  1237.28     0  01:51         2.1        2.14      -0.009
  YS02001774           JUNCTION      0.00   714.22     0  01:50           0       0.345       0.324
  YS02001779           JUNCTION      0.01   713.64     0  01:50    0.000142       0.303      -0.111
  YS02001783           JUNCTION      0.00  1168.30     0  01:48           0        4.65       0.006
  YS02001784           JUNCTION      1.06  1169.58     0  01:48      0.0302        4.68       0.011
  YS02001786           JUNCTION      0.06  1169.64     0  01:48      0.0016        4.68       0.015
  YS02001788           JUNCTION      0.07  1171.21     0  01:48     0.00202        4.68       0.006
  YS02001790           JUNCTION      0.15  1175.78     0  01:48     0.00442        4.68       0.009
  YS02001791           JUNCTION      0.00  1301.28     0  01:49           0        4.68      -0.013
  YS02001793           JUNCTION      0.00  1244.76     0  02:08           0        4.68      -0.033
  YS02001882           JUNCTION      0.00    59.36     0  01:43           0      0.0133       4.388
  YS02001884           JUNCTION      0.00    67.62     0  01:42           0      0.0501       5.132
  YS02001887           JUNCTION    954.24   954.24     0  01:50        1.44        1.47       0.295
  YS02001890           JUNCTION      0.00   954.22     0  01:49           0        1.43       0.353
  YS02001895           JUNCTION      0.00   517.89     0  01:54           0        1.25       0.140
  YS02001898           JUNCTION      0.00   518.06     0  01:54           0        1.25      -0.006
  YS02001901           JUNCTION      0.00   518.12     0  01:54           0        1.25       0.257
  YS02001904           JUNCTION      0.00   518.04     0  01:54           0        1.26       0.212
  YS02001907           JUNCTION      0.00  2249.06     0  01:50           0         4.4       0.410
  YS02001910           JUNCTION      0.00  1626.05     0  01:50           0        3.12       0.232
  YS02001915           JUNCTION   1094.07  1625.46     0  01:50           2        3.17       0.049
  YS02001918           JUNCTION      0.00   539.73     0  01:52           0        1.21       0.020
  YS02001920           JUNCTION      2.87   538.82     0  01:52      0.0818        1.19       0.079
  YS02001923           JUNCTION      0.04   536.03     0  01:52     0.00107        1.09      -0.084
  YS02001926           JUNCTION      0.05   721.92     0  01:45     0.00149        1.07       0.060
  YS02001929           JUNCTION    529.80   529.80     0  01:52        1.05        1.05      -0.029
  YS02006553           JUNCTION      0.00   793.15     0  02:12           0        2.63       0.457
  YS02006556           JUNCTION      0.00   793.13     0  02:12           0        2.64       0.304
  YS02006558           JUNCTION   1269.34  1269.34     0  01:50         2.1         4.7       0.074
  YS02006561           JUNCTION      0.00  1169.84     0  01:45           0        4.65      -0.001
  YS02163301           JUNCTION      0.00   973.82     0  02:17           0         4.2       0.043
  YS02163601           JUNCTION      0.11  1382.97     0  01:44     0.00313        5.65       0.091
  YS02164001           JUNCTION      0.00  1383.11     0  01:44           0        5.65       0.048
  CC-1                 OUTFALL       0.00   683.00     0  00:00           0        5.54       0.000
  CC-2                 OUTFALL       0.00   683.00     0  00:00           0        5.54       0.000
  JK-1                 OUTFALL       0.00  1000.00     0  00:00           0        1.53       0.000
  JK-2                 OUTFALL       0.00  1000.00     0  00:00           0        1.53       0.000
  WSC                  OUTFALL       0.00   555.92     0  03:13           0        5.49       0.000
  CC-storage           STORAGE       0.00  3430.63     0  01:56           0          15      -0.326
  JK-storage           STORAGE       0.00  1383.21     0  01:53           0        4.83      -1.463
  
  
  **********************
  Node Surcharge Summary
  **********************
  
  Surcharging occurs when water rises above the top of the highest conduit.
  ---------------------------------------------------------------------
                                               Max. Height   Min. Depth
                                   Hours       Above Crown    Below Rim
  Node                 Type      Surcharged         Meters       Meters
  ---------------------------------------------------------------------
  WS02004404           JUNCTION        0.01          0.045        2.735
  WS02006109           JUNCTION        2.07          0.608        1.212
  WS02006110           JUNCTION        0.56          0.670        1.180
  WS02006112           JUNCTION        1.61          0.103        1.577
  WS02006228           JUNCTION        2.06          0.537        1.663
  WS02006229           JUNCTION        2.08          0.610        1.840
  WS02006230           JUNCTION        0.60          0.600        0.970
  WS02006231           JUNCTION        1.21          1.530        0.000
  WS02006232           JUNCTION        2.16          1.480        0.000
  WS02006234           JUNCTION        1.59          1.240        0.000
  WS02006235           JUNCTION        1.82          1.290        0.000
  WS02006238           JUNCTION        2.01          1.430        0.000
  WS02006239           JUNCTION        2.01          1.290        0.000
  WS02006240           JUNCTION        2.09          1.390        0.000
  WS02006242           JUNCTION        2.17          0.820        0.000
  WS02006243           JUNCTION        2.10          0.770        0.000
  WS02006245           JUNCTION        2.09          0.850        0.000
  WS02006247           JUNCTION        2.11          0.760        0.000
  WS02006248           JUNCTION        2.08          0.380        0.000
  WS02006249           JUNCTION        2.09          0.390        0.000
  WS02006251           JUNCTION        1.62          0.294        0.886
  WS02006252           JUNCTION        2.68          1.100        0.000
  WS02006256           JUNCTION        5.99          2.050        0.000
  YS02001580           JUNCTION        0.78          0.450        0.000
  YS02001583           JUNCTION        0.78          0.500        0.000
  YS02001586           JUNCTION        0.89          0.510        0.000
  YS02001590           JUNCTION        0.97          0.750        0.000
  YS02001593           JUNCTION        0.97          0.747        0.093
  YS02001596           JUNCTION        1.10          0.964        0.106
  YS02001600           JUNCTION        1.31          1.190        0.000
  YS02001601           JUNCTION        1.65          1.440        0.000
  YS02001602           JUNCTION        1.56          1.270        0.000
  YS02001605           JUNCTION        1.52          1.180        0.000
  YS02001607           JUNCTION        0.89          0.651        0.029
  YS02001610           JUNCTION        0.93          0.680        0.000
  YS02001613           JUNCTION        0.88          0.669        0.031
  YS02001616           JUNCTION        0.82          0.610        0.000
  YS02001619           JUNCTION        0.80          0.610        0.000
  YS02001622           JUNCTION        0.80          0.580        0.040
  YS02001625           JUNCTION        1.04          0.780        0.000
  YS02001629           JUNCTION        0.67          0.470        0.000
  YS02001633           JUNCTION        1.04          1.015        0.045
  YS02001641           JUNCTION        0.90          0.952        0.148
  YS02001644           JUNCTION        0.82          0.920        0.000
  YS02001647           JUNCTION        0.52          0.813        0.087
  YS02001649           JUNCTION        0.57          1.050        0.000
  YS02001652           JUNCTION        0.41          0.996        0.134
  YS02001655           JUNCTION        0.31          1.172        0.028
  YS02001658           JUNCTION        0.22          1.257        0.043
  YS02001661           JUNCTION        0.08          0.745        0.645
  YS02001745           JUNCTION        0.01          1.181        0.169
  YS02001748           JUNCTION        0.14          1.190        0.000
  YS02001751           JUNCTION        0.24          1.200        0.000
  YS02001754           JUNCTION        0.31          1.150        0.000
  YS02001757           JUNCTION        0.55          1.210        0.000
  YS02001759           JUNCTION        0.48          1.197        0.013
  YS02001762           JUNCTION        0.46          1.150        0.000
  YS02001765           JUNCTION        0.43          1.093        0.007
  YS02001767           JUNCTION        0.41          1.030        0.000
  YS02001770           JUNCTION        0.40          0.920        0.000
  YS02001774           JUNCTION        0.46          1.001        0.049
  YS02001779           JUNCTION        0.34          0.680        0.000
  YS02001783           JUNCTION        0.66          0.554        1.046
  YS02001784           JUNCTION        0.63          0.399        1.091
  YS02001786           JUNCTION        0.52          0.132        1.298
  YS02001882           JUNCTION        0.60          0.820        0.010
  YS02001884           JUNCTION        0.61          0.823        0.047
  YS02001887           JUNCTION        0.65          0.845        0.105
  YS02001890           JUNCTION        0.67          0.760        0.000
  YS02001895           JUNCTION        0.59          0.665        0.085
  YS02001898           JUNCTION        0.58          0.658        0.082
  YS02001901           JUNCTION        0.64          0.752        0.118
  YS02001904           JUNCTION        0.62          0.657        0.193
  YS02001907           JUNCTION        0.90          0.950        0.000
  YS02001910           JUNCTION        0.70          1.037        0.063
  YS02001915           JUNCTION        0.60          0.998        0.002
  YS02001918           JUNCTION        0.50          0.810        0.000
  YS02001920           JUNCTION        0.52          1.140        0.000
  YS02001923           JUNCTION        0.17          0.820        0.000
  YS02001926           JUNCTION        0.19          0.900        0.000
  YS02001929           JUNCTION        0.01          0.780        0.000
  YS02006553           JUNCTION        0.92          0.997        0.193
  YS02006556           JUNCTION        0.79          0.960        0.390
  YS02006558           JUNCTION        0.78          0.949        0.451
  YS02006561           JUNCTION        0.47          0.292        0.858
  YS02163301           JUNCTION        1.02          0.925        0.105
  YS02163601           JUNCTION        1.07          1.044        0.036
  YS02164001           JUNCTION        0.92          0.961        0.139
  
  
  *********************
  Node Flooding Summary
  *********************
  
  Flooding refers to all water that overflows a node, whether it ponds or not.
  --------------------------------------------------------------------------
                                                             Total   Maximum
                                 Maximum   Time of Max       Flood    Ponded
                        Hours       Rate    Occurrence      Volume     Depth
  Node                 Flooded       LPS   days hr:min    10^6 ltr    Meters
  --------------------------------------------------------------------------
  WS02006231              0.01     68.03      0  02:30       0.000     0.000
  WS02006232              0.01      5.91      0  02:18       0.000     0.000
  WS02006234              0.01    139.00      0  02:30       0.000     0.000
  WS02006235              0.01     47.68      0  01:53       0.000     0.000
  WS02006238              0.01     32.62      0  01:53       0.000     0.000
  WS02006239              0.01      8.46      0  02:18       0.000     0.000
  WS02006240              0.01     10.27      0  02:18       0.000     0.000
  WS02006242              0.02     34.56      0  01:53       0.001     0.000
  WS02006243              0.01      5.68      0  01:53       0.000     0.000
  WS02006245              0.01      4.75      0  03:18       0.000     0.000
  WS02006247              0.01      4.65      0  03:18       0.000     0.000
  WS02006248              0.24     35.98      0  01:53       0.012     0.000
  WS02006249              1.44    100.55      0  02:45       0.252     0.000
  WS02006252              0.01    245.63      0  00:00       0.000     0.000
  WS02006256              1.71    323.67      0  02:11       0.673     0.000
  YS02001580              0.01    102.53      0  01:42       0.000     0.000
  YS02001583              0.01     19.71      0  01:42       0.000     0.000
  YS02001586              0.63    515.21      0  01:53       0.551     0.000
  YS02001590              0.01      6.06      0  01:42       0.000     0.000
  YS02001600              0.01      3.29      0  01:40       0.000     0.000
  YS02001601              0.79   1422.62      0  01:51       1.783     0.000
  YS02001602              0.57     61.95      0  02:09       0.117     0.000
  YS02001605              0.01      0.22      0  02:02       0.000     0.000
  YS02001610              0.51    832.01      0  01:53       0.903     0.000
  YS02001616              0.01      1.47      0  01:44       0.000     0.000
  YS02001619              0.01      2.28      0  01:49       0.000     0.000
  YS02001625              0.43   1405.55      0  01:54       1.245     0.000
  YS02001629              0.16    312.76      0  01:49       0.089     0.000
  YS02001644              0.21   1276.02      0  01:50       0.557     0.000
  YS02001649              0.01    115.12      0  01:47       0.001     0.000
  YS02001748              0.01    255.40      0  01:47       0.000     0.000
  YS02001751              0.01     58.83      0  01:47       0.000     0.000
  YS02001754              0.01     15.96      0  01:47       0.000     0.000
  YS02001757              0.01     47.99      0  01:47       0.000     0.000
  YS02001762              0.01      7.46      0  01:47       0.000     0.000
  YS02001767              0.01     56.56      0  01:45       0.000     0.000
  YS02001770              0.01     53.26      0  01:47       0.001     0.000
  YS02001779              0.19    713.46      0  01:50       0.285     0.000
  YS02001890              0.21    439.65      0  01:49       0.172     0.000
  YS02001907              0.44   2248.83      0  01:50       1.778     0.000
  YS02001918              0.01    217.16      0  01:45       0.003     0.000
  YS02001920              0.01     43.34      0  01:45       0.000     0.000
  YS02001923              0.01    133.00      0  01:45       0.000     0.000
  YS02001926              0.01    241.81      0  01:45       0.002     0.000
  YS02001929              0.01     38.81      0  01:45       0.000     0.000
  
  
  **********************
  Storage Volume Summary
  **********************
  
  ------------------------------------------------------------------------------------------------
                         Average    Avg   Evap  Exfil     Maximum    Max    Time of Max    Maximum
                          Volume   Pcnt   Pcnt   Pcnt      Volume   Pcnt     Occurrence    Outflow
  Storage Unit           1000 m³   Full   Loss   Loss     1000 m³   Full    days hr:min        LPS
  ------------------------------------------------------------------------------------------------
  CC-storage               0.941   14.7    0.0    0.0       3.042   47.5       0  02:31    1783.53
  JK-storage               0.007    2.4    0.0    0.0       0.150   51.6       0  00:00    2300.00
  
  
  ***********************
  Outfall Loading Summary
  ***********************
  
  -----------------------------------------------------------
                         Flow       Avg       Max       Total
                         Freq      Flow      Flow      Volume
  Outfall Node           Pcnt       LPS       LPS    10^6 ltr
  -----------------------------------------------------------
  CC-1                  50.00    683.00    683.00       5.540
  CC-2                  50.00    683.00    683.00       5.540
  JK-1                   9.82    999.90   1000.00       1.533
  JK-2                   9.82    999.90   1000.00       1.533
  WSC                   99.94    270.60    555.92       5.491
  -----------------------------------------------------------
  System                43.91   3636.39   3902.22      19.638
  
  
  ********************
  Link Flow Summary
  ********************
  
  -----------------------------------------------------------------------------
                                 Maximum  Time of Max   Maximum    Max/    Max/
                                  |Flow|   Occurrence   |Veloc|    Full    Full
  Link                 Type          LPS  days hr:min     m/sec    Flow   Depth
  -----------------------------------------------------------------------------
  1                    CONDUIT    555.92     0  03:13      2.83    0.19    0.30
  WS02003060WS02003069 CONDUIT    554.38     0  03:11      1.64    0.22    0.34
  WS02003066WSF200     CONDUIT    537.77     0  03:10      2.85    0.09    0.22
  WS02003067WS02003066 CONDUIT    537.73     0  03:10      1.21    0.17    0.42
  WS02003069WS02003072 CONDUIT    554.47     0  03:12      1.37    0.27    0.39
  WS02003072WS02003073 CONDUIT    554.31     0  03:12      1.44    1.20    0.37
  WS02004401WS02004402 CONDUIT    545.92     0  02:59      1.22    0.66    0.89
  WS02004402WS02004403 CONDUIT    548.84     0  02:59      1.24    0.79    0.91
  WS02004403WS02004404 CONDUIT    558.88     0  03:08      1.24    0.40    0.96
  WS02004404WS02004405 CONDUIT    601.68     0  03:08      1.45    5.89    0.98
  WS02004405WS02004406 CONDUIT    544.70     0  03:08      1.46    1.07    0.96
  WS02004406WS02004407 CONDUIT    539.79     0  03:08      1.04    0.24    0.63
  WS02004407WS02004409 CONDUIT    539.07     0  03:08      1.65    0.19    0.48
  WS02004409WS02004410 CONDUIT    538.64     0  03:09      1.06    0.70    0.68
  WS02004410WS02004411 CONDUIT    538.40     0  03:09      1.12    0.74    0.69
  WS02004411WS02004412 CONDUIT    538.08     0  03:09      1.22    0.76    0.69
  WS02004412WS02004413 CONDUIT    537.90     0  03:10      1.22    0.36    0.78
  WS02004413WS02003067 CONDUIT    537.67     0  03:10      1.11    0.23    0.59
  WS02006109WS02006110 CONDUIT    591.53     0  02:58      1.18    1.14    1.00
  WS02006110WS02006113 CONDUIT    603.84     0  02:45      1.44    0.55    0.79
  WS02006111WS02006112 CONDUIT    556.53     0  02:45      1.95    0.26    0.68
  WS02006112WS02006115 CONDUIT    555.56     0  02:45      0.88    0.33    0.88
  WS02006113WS02006111 CONDUIT    571.19     0  02:45      2.50    0.68    0.47
  WS02006115WS02006116 CONDUIT    548.45     0  02:45      1.29    0.70    0.78
  WS02006116WS02004401 CONDUIT    546.07     0  02:59      1.21    0.75    0.86
  WS02006228WS02006109 CONDUIT    589.05     0  02:58      1.17    2.57    1.00
  WS02006229WS02006228 CONDUIT    589.78     0  02:58      1.17    1.95    1.00
  WS02006230WS02006229 CONDUIT    586.05     0  02:45      1.52   13.04    1.00
  WS02006231WS02006230 CONDUIT    609.08     0  03:18      1.66    9.24    1.00
  WS02006232WS02006231 CONDUIT    641.80     0  03:18      1.67    1.34    1.00
  WS02006234WS02006232 CONDUIT    634.59     0  03:18      1.65    1.28    1.00
  WS02006235WS02006234 CONDUIT    604.55     0  03:18      1.57    6.38    1.00
  WS02006238WS02006235 CONDUIT    427.40     0  03:17      1.45    0.95    1.00
  WS02006239WS02006238 CONDUIT    423.15     0  03:14      1.16    1.35    1.00
  WS02006240WS02006239 CONDUIT    424.11     0  03:14      1.28    1.33    1.00
  WS02006242WS02006240 CONDUIT    421.83     0  03:14      1.16    1.68    1.00
  WS02006243WS02006242 CONDUIT    422.39     0  03:14      1.41    0.90    1.00
  WS02006245WS02006243 CONDUIT    421.73     0  03:14      1.44    1.25    1.00
  WS02006247WS02006245 CONDUIT    420.62     0  03:14      1.43    3.34    1.00
  WS02006248WS02006247 CONDUIT    421.06     0  02:46      1.45    0.92    1.00
  WS02006249WS02006248 CONDUIT    421.15     0  02:46      1.39    2.31    1.00
  WS02006251WS02006249 CONDUIT    474.82     0  03:41      1.99    1.37    1.00
  WS02006252WS02006251 CONDUIT    406.84     0  01:35     25.83    1.49    1.00
  WS02006256WS02006235 CONDUIT    288.91     0  00:00      4.23    3.06    1.00
  WSF200WS02003060     CONDUIT    537.93     0  03:10      2.06    0.12    0.28
  YS02001580YS02001583 CONDUIT    125.22     0  01:42      0.70    0.49    1.00
  YS02001583YS02001586 CONDUIT    167.89     0  01:42      0.71    0.25    1.00
  YS02001586YS02001590 CONDUIT    318.88     0  02:18      1.28    0.56    1.00
  YS02001590YS02001593 CONDUIT    318.79     0  02:18      1.13    2.00    1.00
  YS02001593YS02001596 CONDUIT    317.92     0  02:01      1.75    0.50    1.00
  YS02001596YS02001600 CONDUIT    317.96     0  01:51      1.24    0.62    1.00
  YS02001600YS02001601 CONDUIT    317.90     0  02:02      1.12    0.55    1.00
  YS02001601YS02001602 CONDUIT    529.08     0  01:42      1.87    1.91    1.00
  YS02001602YS02001605 CONDUIT    528.50     0  01:42      1.87   11.18    1.00
  YS02001605YS02001607 CONDUIT    528.10     0  01:42      1.87    2.90    1.00
  YS02001607YS02001610 CONDUIT    535.54     0  01:41      0.68    0.51    1.00
  YS02001610YS02001613 CONDUIT    539.82     0  01:41      0.69    0.62    1.00
  YS02001613YS02001616 CONDUIT    548.71     0  01:41      0.70    0.47    1.00
  YS02001616YS02001619 CONDUIT    512.60     0  02:29      0.68    0.89    1.00
  YS02001619YS02001622 CONDUIT    990.67     0  01:51      1.26    1.46    1.00
  YS02001622YS02001625 CONDUIT    990.97     0  01:51      1.26    0.53    1.00
  YS02001625YS02001629 CONDUIT    972.55     0  02:16      1.24    0.46    1.00
  YS02001629YS02163301 CONDUIT    973.82     0  02:17      1.24    1.20    1.00
  YS02001633YS02163601 CONDUIT   1382.86     0  01:44      1.76    1.45    1.00
  YS02001641YS02001644 CONDUIT   1386.38     0  01:44      1.77    4.48    1.00
  YS02001644YS02001647 CONDUIT   1818.19     0  01:45      2.31    1.07    1.00
  YS02001647YS02001649 CONDUIT   1831.26     0  01:44      2.34    0.97    1.00
  YS02001649YS02001757 CONDUIT   2069.47     0  01:45      2.63    1.26    1.00
  YS02001652YS02001649 CONDUIT   1012.30     0  01:50      1.29    0.50    1.00
  YS02001655YS02001652 CONDUIT   1012.21     0  01:50      1.37    0.49    1.00
  YS02001658YS02001655 CONDUIT   1011.62     0  01:50      1.91    0.43    1.00
  YS02001661YS02001658 CONDUIT   1011.70     0  01:50      2.37    0.40    1.00
  YS02001664YS02001661 CONDUIT   1010.27     0  01:50      2.40    0.32    0.98
  YS02001745YS02001748 CONDUIT    651.41     0  01:50      2.27    0.25    1.00
  YS02001748YS02001751 CONDUIT    652.48     0  01:50      1.73    0.33    1.00
  YS02001751YS02001754 CONDUIT    652.09     0  01:50      1.43    0.31    1.00
  YS02001754YS02001757 CONDUIT    653.03     0  01:50      0.83    0.26    1.00
  YS02001757CaochengTiaoxuchi CONDUIT   3430.63     0  01:56      7.07    1.48    1.00
  YS02001759YS02001757 CONDUIT   1412.67     0  01:49      1.80    1.00    1.00
  YS02001762YS02001759 CONDUIT    826.73     0  01:57      1.05    0.95    1.00
  YS02001765YS02001762 CONDUIT    825.43     0  01:57      1.05    0.77    1.00
  YS02001767YS02001765 CONDUIT    824.52     0  01:57      1.05    1.04    1.00
  YS02001770YS02001767 CONDUIT    823.48     0  01:57      1.05    3.26    1.00
  YS02001774YS02001770 CONDUIT    714.22     0  01:50      0.91    0.46    1.00
  YS02001779YS02001774 CONDUIT    713.64     0  01:50      0.91    0.36    1.00
  YS02001783YS02001784 CONDUIT   1168.52     0  01:48      2.32    1.61    1.00
  YS02001784YS02001785 CONDUIT   1169.59     0  01:48      2.33    2.72    1.00
  YS02001786YS02001788 CONDUIT   1171.14     0  01:48      2.49    2.26    0.89
  YS02001788YS02001790 CONDUIT   1175.63     0  01:48      2.72    0.87    0.84
  YS02001790YS02001791 CONDUIT   1301.28     0  01:49      3.45    1.42    0.71
  YS02001791YS02001793 CONDUIT   1244.76     0  02:08      6.77    0.53    0.43
  YS02001793JiankangQianchi CONDUIT   1383.21     0  01:53     21.16    0.11    0.50
  YS02001882YS02001884 CONDUIT     59.36     0  01:43      0.16    0.07    1.00
  YS02001884YS02001887 CONDUIT     67.62     0  01:42      0.12    0.09    1.00
  YS02001887YS02001890 CONDUIT    954.22     0  01:49      1.21    1.63    1.00
  YS02001890YS02001895 CONDUIT    517.89     0  01:54      0.66    0.24    1.00
  YS02001895YS02001898 CONDUIT    518.06     0  01:54      0.66    0.90    1.00
  YS02001898YS02001901 CONDUIT    518.12     0  01:54      0.66    0.33    1.00
  YS02001901YS02001904 CONDUIT    518.04     0  01:54      0.66    0.80    1.00
  YS02001904YS02001907 CONDUIT    518.28     0  01:54      0.66    0.18    1.00
  YS02001907YS02006553 CONDUIT    793.15     0  02:12      0.88    0.93    1.00
  YS02001910YS02001907 CONDUIT   1625.70     0  01:50      2.07    0.92    1.00
  YS02001915YS02001910 CONDUIT   1626.05     0  01:50      2.07    0.81    1.00
  YS02001918YS02001915 CONDUIT    539.16     0  01:52      0.69    0.30    1.00
  YS02001920YS02001918 CONDUIT    539.73     0  01:52      0.69    0.52    1.00
  YS02001923YS02001920 CONDUIT    535.95     0  01:52      0.70    0.24    1.00
  YS02001926YS02001923 CONDUIT    535.99     0  01:52      0.97    0.77    1.00
  YS02001929YS02001926 CONDUIT    535.57     0  01:52      1.15    0.25    1.00
  YS02006553YS02006556 CONDUIT    793.13     0  02:12      1.01    0.68    1.00
  YS02006556YS02006558 CONDUIT    794.54     0  02:12      1.01    0.63    1.00
  YS02006558YS02006561 CONDUIT   1169.84     0  01:45      4.14    2.59    1.00
  YS02006561YS02001783 CONDUIT   1168.30     0  01:48      2.32    0.61    1.00
  YS02163301YS02001633 CONDUIT    974.23     0  02:16      1.24    0.92    1.00
  YS02163601YS02164001 CONDUIT   1383.11     0  01:44      1.76    1.23    1.00
  YS02164001YS02001641 CONDUIT   1385.16     0  01:44      1.76    1.89    1.00
  CC-R1                PUMP       683.00     0  00:00              1.00
  CC-R2                PUMP       683.00     0  00:00              1.00
  CC-S1                PUMP       200.00     0  00:00              1.00
  CC-S2                PUMP       200.00     0  00:00              1.00
  JK-R1                PUMP      1000.00     0  00:00              1.00
  JK-R2                PUMP      1000.00     0  00:00              1.00
  JK-S                 PUMP       300.00     0  00:00              1.00
  
  
  ***************************
  Flow Classification Summary
  ***************************
  
  -------------------------------------------------------------------------------------
                      Adjusted    ---------- Fraction of Time in Flow Class ---------- 
                       /Actual         Up    Down  Sub   Sup   Up    Down  Norm  Inlet 
  Conduit               Length    Dry  Dry   Dry   Crit  Crit  Crit  Crit  Ltd   Ctrl  
  -------------------------------------------------------------------------------------
  1                       1.00   0.00  0.00  0.00  0.00  1.00  0.00  0.00  0.35  0.00
  WS02003060WS02003069    1.00   0.00  0.00  0.00  0.97  0.03  0.00  0.00  0.71  0.00
  WS02003066WSF200        1.00   0.05  0.00  0.00  0.00  0.95  0.00  0.00  0.81  0.00
  WS02003067WS02003066    1.00   0.05  0.00  0.00  0.95  0.00  0.00  0.00  0.00  0.00
  WS02003069WS02003072    1.00   0.00  0.00  0.00  0.99  0.01  0.00  0.00  0.73  0.00
  WS02003072WS02003073    1.00   0.00  0.00  0.00  0.00  0.00  0.00  1.00  0.00  0.00
  WS02004401WS02004402    1.00   0.02  0.00  0.00  0.98  0.00  0.00  0.00  0.00  0.00
  WS02004402WS02004403    1.00   0.02  0.00  0.00  0.98  0.00  0.00  0.00  0.00  0.00
  WS02004403WS02004404    1.00   0.00  0.03  0.00  0.97  0.00  0.00  0.00  0.00  0.00
  WS02004404WS02004405    1.00   0.00  0.00  0.00  1.00  0.00  0.00  0.00  0.02  0.00
  WS02004405WS02004406    1.00   0.00  0.00  0.00  1.00  0.00  0.00  0.00  0.00  0.00
  WS02004406WS02004407    1.00   0.00  0.03  0.00  0.97  0.00  0.00  0.00  0.00  0.00
  WS02004407WS02004409    1.00   0.03  0.00  0.00  0.95  0.01  0.00  0.00  0.95  0.00
  WS02004409WS02004410    1.00   0.03  0.00  0.00  0.96  0.00  0.00  0.00  0.00  0.00
  WS02004410WS02004411    1.00   0.04  0.00  0.00  0.96  0.00  0.00  0.00  0.00  0.00
  WS02004411WS02004412    1.00   0.04  0.00  0.00  0.96  0.00  0.00  0.00  0.00  0.00
  WS02004412WS02004413    1.00   0.04  0.00  0.00  0.96  0.00  0.00  0.00  0.00  0.00
  WS02004413WS02003067    1.00   0.04  0.01  0.00  0.00  0.00  0.95  0.00  0.00  0.00
  WS02006109WS02006110    1.00   0.00  0.01  0.00  0.98  0.00  0.01  0.00  0.00  0.00
  WS02006110WS02006113    1.00   0.01  0.01  0.00  0.98  0.00  0.00  0.00  0.00  0.00
  WS02006111WS02006112    1.00   0.02  0.00  0.00  0.98  0.00  0.00  0.00  0.98  0.00
  WS02006112WS02006115    1.00   0.02  0.00  0.00  0.97  0.00  0.00  0.00  0.00  0.00
  WS02006113WS02006111    1.00   0.02  0.00  0.00  0.00  0.98  0.00  0.00  0.16  0.00
  WS02006115WS02006116    1.00   0.02  0.00  0.00  0.97  0.00  0.00  0.01  0.00  0.00
  WS02006116WS02004401    1.00   0.02  0.00  0.00  0.98  0.00  0.00  0.00  0.00  0.00
  WS02006228WS02006109    1.00   0.00  0.00  0.00  1.00  0.00  0.00  0.00  0.01  0.00
  WS02006229WS02006228    1.00   0.00  0.00  0.00  0.99  0.00  0.00  0.01  0.00  0.00
  WS02006230WS02006229    1.00   0.00  0.00  0.00  0.99  0.00  0.00  0.01  0.02  0.00
  WS02006231WS02006230    1.00   0.00  0.00  0.00  0.28  0.00  0.71  0.00  0.00  0.00
  WS02006232WS02006231    1.00   0.00  0.00  0.00  0.98  0.00  0.02  0.00  0.00  0.00
  WS02006234WS02006232    1.00   0.00  0.00  0.00  1.00  0.00  0.00  0.00  0.04  0.00
  WS02006235WS02006234    1.00   0.00  0.00  0.00  0.92  0.00  0.08  0.00  0.00  0.00
  WS02006238WS02006235    1.00   0.00  0.00  0.00  1.00  0.00  0.00  0.00  0.00  0.00
  WS02006239WS02006238    1.00   0.00  0.00  0.00  1.00  0.00  0.00  0.00  0.22  0.00
  WS02006240WS02006239    1.00   0.00  0.00  0.00  0.67  0.00  0.00  0.33  0.05  0.00
  WS02006242WS02006240    1.00   0.00  0.00  0.00  0.99  0.00  0.01  0.00  0.02  0.00
  WS02006243WS02006242    1.00   0.00  0.00  0.00  0.99  0.00  0.00  0.01  0.56  0.00
  WS02006245WS02006243    1.00   0.00  0.00  0.00  0.60  0.00  0.00  0.39  0.02  0.00
  WS02006247WS02006245    1.00   0.00  0.00  0.00  0.99  0.00  0.00  0.01  0.00  0.00
  WS02006248WS02006247    1.00   0.00  0.00  0.00  0.99  0.00  0.00  0.01  0.23  0.00
  WS02006249WS02006248    1.00   0.00  0.00  0.00  0.41  0.00  0.59  0.00  0.00  0.00
  WS02006251WS02006249    1.00   0.00  0.00  0.00  0.99  0.00  0.00  0.00  0.60  0.00
  WS02006252WS02006251    1.00   0.00  0.53  0.00  0.20  0.00  0.27  0.00  0.00  0.00
  WS02006256WS02006235    1.00   0.00  0.00  0.00  0.98  0.02  0.00  0.00  0.00  0.00
  WSF200WS02003060        1.00   0.00  0.05  0.00  0.36  0.59  0.00  0.00  0.64  0.00
  YS02001580YS02001583    1.00   0.21  0.57  0.00  0.22  0.00  0.00  0.00  0.67  0.00
  YS02001583YS02001586    1.00   0.41  0.32  0.00  0.27  0.00  0.00  0.00  0.67  0.00
  YS02001586YS02001590    1.00   0.13  0.00  0.00  0.44  0.04  0.00  0.39  0.36  0.00
  YS02001590YS02001593    1.00   0.13  0.01  0.00  0.14  0.00  0.73  0.00  0.00  0.00
  YS02001593YS02001596    1.00   0.13  0.00  0.00  0.16  0.01  0.00  0.69  0.03  0.00
  YS02001596YS02001600    1.00   0.14  0.00  0.00  0.22  0.01  0.00  0.63  0.04  0.00
  YS02001600YS02001601    1.00   0.13  0.01  0.00  0.86  0.00  0.00  0.00  0.58  0.00
  YS02001601YS02001602    1.00   0.13  0.01  0.00  0.87  0.00  0.00  0.00  0.00  0.00
  YS02001602YS02001605    1.00   0.13  0.00  0.00  0.86  0.00  0.00  0.00  0.00  0.00
  YS02001605YS02001607    1.00   0.14  0.00  0.00  0.86  0.00  0.00  0.00  0.00  0.00
  YS02001607YS02001610    1.00   0.13  0.01  0.00  0.86  0.00  0.00  0.00  0.01  0.00
  YS02001610YS02001613    1.00   0.13  0.00  0.00  0.87  0.00  0.00  0.00  0.00  0.00
  YS02001613YS02001616    1.00   0.13  0.00  0.00  0.87  0.00  0.00  0.00  0.00  0.00
  YS02001616YS02001619    1.00   0.13  0.00  0.00  0.87  0.00  0.00  0.00  0.00  0.00
  YS02001619YS02001622    1.00   0.13  0.00  0.00  0.87  0.00  0.00  0.00  0.27  0.00
  YS02001622YS02001625    1.00   0.13  0.00  0.00  0.87  0.00  0.00  0.00  0.03  0.00
  YS02001625YS02001629    1.00   0.13  0.04  0.00  0.19  0.00  0.64  0.00  0.00  0.00
  YS02001629YS02163301    1.00   0.15  0.01  0.00  0.84  0.00  0.00  0.00  0.00  0.00
  YS02001633YS02163601    1.00   0.00  0.01  0.00  0.99  0.00  0.00  0.00  0.15  0.00
  YS02001641YS02001644    1.00   0.00  0.01  0.00  0.99  0.00  0.00  0.00  0.00  0.00
  YS02001644YS02001647    1.00   0.00  0.16  0.00  0.84  0.00  0.00  0.00  0.00  0.00
  YS02001647YS02001649    1.00   0.00  0.16  0.00  0.50  0.33  0.00  0.00  0.55  0.00
  YS02001649YS02001757    1.00   0.00  0.00  0.00  0.79  0.21  0.00  0.00  0.72  0.00
  YS02001652YS02001649    1.00   0.00  0.00  0.00  0.97  0.03  0.00  0.00  0.72  0.00
  YS02001655YS02001652    1.00   0.00  0.00  0.00  0.21  0.01  0.00  0.78  0.10  0.00
  YS02001658YS02001655    1.00   0.00  0.14  0.00  0.62  0.24  0.00  0.00  0.71  0.00
  YS02001661YS02001658    1.00   0.14  0.00  0.00  0.45  0.41  0.00  0.00  0.73  0.00
  YS02001664YS02001661    1.00   0.13  0.00  0.00  0.70  0.17  0.00  0.00  0.85  0.00
  YS02001745YS02001748    1.00   0.00  0.00  0.00  0.05  0.01  0.00  0.94  0.03  0.00
  YS02001748YS02001751    1.00   0.00  0.00  0.00  0.77  0.23  0.00  0.00  0.84  0.00
  YS02001751YS02001754    1.00   0.00  0.00  0.00  0.14  0.01  0.00  0.85  0.05  0.00
  YS02001754YS02001757    1.00   0.00  0.00  0.00  1.00  0.00  0.00  0.00  0.82  0.00
  YS02001757CaochengTiaoxuchi    1.00   0.00  0.00  0.00  0.18  0.82  0.00  0.00  0.16  0.00
  YS02001759YS02001757    1.00   0.00  0.00  0.00  1.00  0.00  0.00  0.00  0.63  0.00
  YS02001762YS02001759    1.00   0.00  0.00  0.00  1.00  0.00  0.00  0.00  0.05  0.00
  YS02001765YS02001762    1.00   0.00  0.00  0.00  1.00  0.00  0.00  0.00  0.71  0.00
  YS02001767YS02001765    1.00   0.00  0.00  0.00  1.00  0.00  0.00  0.00  0.00  0.00
  YS02001770YS02001767    1.00   0.00  0.00  0.00  1.00  0.00  0.00  0.00  0.00  0.00
  YS02001774YS02001770    1.00   0.00  0.13  0.00  0.71  0.00  0.15  0.00  0.02  0.00
  YS02001779YS02001774    1.00   0.00  0.00  0.00  1.00  0.00  0.00  0.00  0.77  0.00
  YS02001783YS02001784    1.00   0.00  0.17  0.00  0.83  0.00  0.00  0.00  0.54  0.00
  YS02001784YS02001785    1.00   0.00  0.00  0.00  1.00  0.00  0.00  0.00  0.16  0.00
  YS02001786YS02001788    1.00   0.00  0.00  0.00  0.79  0.21  0.00  0.00  0.00  0.00
  YS02001788YS02001790    1.00   0.00  0.00  0.00  0.21  0.79  0.00  0.00  0.78  0.00
  YS02001790YS02001791    1.00   0.00  0.00  0.00  0.01  0.99  0.00  0.00  0.16  0.00
  YS02001791YS02001793    1.00   0.00  0.00  0.00  0.00  1.00  0.00  0.00  0.01  0.00
  YS02001793JiankangQianchi    1.00   0.00  0.00  0.00  0.42  0.58  0.00  0.00  0.83  0.00
  YS02001882YS02001884    1.00   0.15  0.01  0.00  0.85  0.00  0.00  0.00  0.00  0.00
  YS02001884YS02001887    1.00   0.06  0.05  0.00  0.89  0.00  0.00  0.00  0.00  0.00
  YS02001887YS02001890    1.00   0.00  0.00  0.00  0.97  0.00  0.03  0.00  0.00  0.00
  YS02001890YS02001895    1.00   0.00  0.15  0.00  0.84  0.00  0.00  0.00  0.00  0.00
  YS02001895YS02001898    1.00   0.16  0.00  0.00  0.83  0.00  0.02  0.00  0.00  0.00
  YS02001898YS02001901    1.00   0.16  0.00  0.00  0.84  0.00  0.00  0.00  0.01  0.00
  YS02001901YS02001904    1.00   0.16  0.00  0.00  0.84  0.00  0.00  0.00  0.00  0.00
  YS02001904YS02001907    1.00   0.00  0.16  0.00  0.84  0.00  0.00  0.00  0.00  0.00
  YS02001907YS02006553    1.00   0.00  0.02  0.00  0.98  0.00  0.00  0.00  0.00  0.00
  YS02001910YS02001907    1.00   0.00  0.00  0.00  0.97  0.00  0.00  0.03  0.12  0.00
  YS02001915YS02001910    1.00   0.00  0.00  0.00  0.97  0.03  0.00  0.00  0.14  0.00
  YS02001918YS02001915    1.00   0.00  0.01  0.00  0.98  0.02  0.00  0.00  0.72  0.00
  YS02001920YS02001918    1.00   0.00  0.01  0.00  0.99  0.00  0.00  0.00  0.00  0.00
  YS02001923YS02001920    1.00   0.00  0.00  0.00  1.00  0.00  0.00  0.00  0.91  0.00
  YS02001926YS02001923    1.00   0.00  0.07  0.00  0.08  0.00  0.85  0.00  0.00  0.00
  YS02001929YS02001926    1.00   0.00  0.13  0.00  0.87  0.00  0.00  0.00  0.80  0.00
  YS02006553YS02006556    1.00   0.01  0.00  0.00  0.99  0.00  0.00  0.00  0.03  0.00
  YS02006556YS02006558    1.00   0.00  0.00  0.00  1.00  0.00  0.00  0.00  0.00  0.00
  YS02006558YS02006561    1.00   0.17  0.00  0.00  0.07  0.76  0.00  0.00  0.18  0.00
  YS02006561YS02001783    1.00   0.17  0.00  0.00  0.11  0.72  0.00  0.00  0.67  0.00
  YS02163301YS02001633    1.00   0.00  0.15  0.00  0.85  0.00  0.00  0.00  0.00  0.00
  YS02163601YS02164001    1.00   0.00  0.08  0.00  0.92  0.00  0.00  0.00  0.00  0.00
  YS02164001YS02001641    1.00   0.01  0.08  0.00  0.92  0.00  0.00  0.00  0.05  0.00
  
  
  *************************
  Conduit Surcharge Summary
  *************************
  
  ----------------------------------------------------------------------------
                                                           Hours        Hours 
                         --------- Hours Full --------   Above Full   Capacity
  Conduit                Both Ends  Upstream  Dnstream   Normal Flow   Limited
  ----------------------------------------------------------------------------
  WS02003072WS02003073        0.01      0.01      0.01      1.81         0.01
  WS02004403WS02004404        0.01      0.01      0.01      0.01         0.01
  WS02004404WS02004405        0.01      0.01      0.01      3.33         0.01
  WS02004405WS02004406        0.01      0.01      0.01      1.23         0.01
  WS02006109WS02006110        0.55      0.55      2.14      0.82         0.01
  WS02006110WS02006113        0.01      0.01      2.12      0.01         0.01
  WS02006111WS02006112        0.01      0.01      2.22      0.01         0.01
  WS02006112WS02006115        0.01      0.01      1.61      0.01         0.01
  WS02006228WS02006109        2.07      2.14      2.07      2.55         2.06
  WS02006229WS02006228        2.06      2.08      2.06      2.35         2.03
  WS02006230WS02006229        2.22      2.28      2.22      3.76         2.22
  WS02006231WS02006230        0.59      0.59      1.47      3.38         0.01
  WS02006232WS02006231        1.19      1.19      2.16      1.32         0.01
  WS02006234WS02006232        1.83      1.83      2.16      1.26         1.10
  WS02006235WS02006234        1.53      1.59      1.80      3.13         0.13
  WS02006238WS02006235        1.88      1.88      2.17      0.01         0.07
  WS02006239WS02006238        2.00      2.15      2.01      2.35         1.61
  WS02006240WS02006239        2.01      2.10      2.01      2.34         1.55
  WS02006242WS02006240        2.09      2.09      2.23      2.53         0.03
  WS02006243WS02006242        2.11      2.11      2.17      0.01         0.32
  WS02006245WS02006243        2.09      2.10      2.10      1.96         1.21
  WS02006247WS02006245        2.09      2.12      2.09      2.68         1.92
  WS02006248WS02006247        2.09      2.09      2.11      0.01         0.38
  WS02006249WS02006248        2.08      2.08      2.09      2.66         0.01
  WS02006251WS02006249        2.09      2.10      2.09      2.61         1.84
  WS02006252WS02006251        2.68      2.68      2.68      2.68         0.01
  WS02006256WS02006235        2.97      3.23      5.80      1.73         0.02
  YS02001580YS02001583        0.78      0.78      0.79      0.01         0.01
  YS02001583YS02001586        0.78      0.78      0.89      0.01         0.01
  YS02001586YS02001590        0.89      0.89      0.97      0.01         0.01
  YS02001590YS02001593        0.97      0.97      1.00      1.09         0.01
  YS02001593YS02001596        0.99      0.99      1.10      0.01         0.01
  YS02001596YS02001600        1.16      1.16      1.31      0.01         0.01
  YS02001600YS02001601        1.40      1.40      1.65      0.01         0.01
  YS02001601YS02001602        1.56      1.56      1.68      1.35         0.01
  YS02001602YS02001605        1.52      1.52      1.56      2.38         0.01
  YS02001605YS02001607        1.48      1.52      1.48      1.62         1.48
  YS02001607YS02001610        0.89      0.89      0.93      0.01         0.01
  YS02001610YS02001613        0.88      0.88      0.93      0.01         0.01
  YS02001613YS02001616        0.82      0.82      0.88      0.01         0.01
  YS02001616YS02001619        0.80      0.80      0.82      0.01         0.06
  YS02001619YS02001622        0.80      0.80      0.80      1.03         0.78
  YS02001622YS02001625        0.80      0.80      1.04      0.01         0.01
  YS02001625YS02001629        0.67      0.67      1.04      0.01         0.01
  YS02001629YS02163301        1.01      1.01      1.02      0.46         0.43
  YS02001633YS02163601        1.04      1.04      1.07      0.62         0.61
  YS02001641YS02001644        0.82      0.90      0.82      1.70         0.81
  YS02001644YS02001647        0.52      0.52      0.82      0.04         0.01
  YS02001647YS02001649        0.52      0.52      0.57      0.01         0.01
  YS02001649YS02001757        0.55      0.57      0.55      0.49         0.39
  YS02001652YS02001649        0.43      0.43      0.57      0.01         0.01
  YS02001655YS02001652        0.31      0.31      0.41      0.01         0.01
  YS02001658YS02001655        0.22      0.22      0.31      0.01         0.01
  YS02001661YS02001658        0.08      0.08      0.22      0.01         0.01
  YS02001664YS02001661        0.01      0.01      0.12      0.01         0.01
  YS02001745YS02001748        0.01      0.01      0.14      0.01         0.01
  YS02001748YS02001751        0.19      0.19      0.24      0.01         0.01
  YS02001751YS02001754        0.24      0.24      0.31      0.01         0.01
  YS02001754YS02001757        0.33      0.33      0.55      0.01         0.01
  YS02001757CaochengTiaoxuchi        0.01      0.55      0.48      0.64         0.01
  YS02001759YS02001757        0.48      0.48      0.55      0.01         0.06
  YS02001762YS02001759        0.46      0.46      0.48      0.01         0.03
  YS02001765YS02001762        0.43      0.43      0.46      0.01         0.01
  YS02001767YS02001765        0.41      0.41      0.43      0.02         0.05
  YS02001770YS02001767        0.41      0.42      0.41      0.73         0.40
  YS02001774YS02001770        0.40      0.40      0.46      0.01         0.01
  YS02001779YS02001774        0.34      0.34      0.46      0.01         0.01
  YS02001783YS02001784        0.63      0.66      0.63      0.83         0.63
  YS02001784YS02001785        0.52      0.63      0.52      1.12         0.52
  YS02001786YS02001788        0.01      0.52      0.01      0.97         0.01
  YS02001790YS02001791        0.01      0.01      0.01      0.62         0.01
  YS02001882YS02001884        0.60      0.60      0.61      0.01         0.01
  YS02001884YS02001887        0.64      0.64      0.65      0.01         0.01
  YS02001887YS02001890        0.67      0.67      0.68      0.17         0.01
  YS02001890YS02001895        0.59      0.59      0.70      0.01         0.01
  YS02001895YS02001898        0.58      0.58      0.59      0.01         0.01
  YS02001898YS02001901        0.59      0.59      0.64      0.01         0.01
  YS02001901YS02001904        0.62      0.62      0.64      0.01         0.01
  YS02001904YS02001907        0.62      0.62      0.92      0.01         0.01
  YS02001907YS02006553        1.15      1.15      1.23      0.01         0.01
  YS02001910YS02001907        0.70      0.70      0.90      0.01         0.01
  YS02001915YS02001910        0.60      0.60      0.70      0.01         0.01
  YS02001918YS02001915        0.50      0.50      0.60      0.01         0.01
  YS02001920YS02001918        0.50      0.50      0.52      0.01         0.01
  YS02001923YS02001920        0.46      0.46      0.52      0.01         0.01
  YS02001926YS02001923        0.17      0.17      0.19      0.01         0.01
  YS02001929YS02001926        0.01      0.01      0.19      0.01         0.01
  YS02006553YS02006556        0.79      0.79      0.92      0.01         0.01
  YS02006556YS02006558        0.85      0.85      0.95      0.01         0.01
  YS02006558YS02006561        0.54      0.78      0.54      1.07         0.54
  YS02006561YS02001783        0.47      0.47      0.66      0.01         0.01
  YS02163301YS02001633        1.02      1.02      1.07      0.01         0.03
  YS02163601YS02164001        0.92      0.92      1.07      0.38         0.01
  YS02164001YS02001641        0.90      0.92      0.90      0.91         0.70
  
  
  ***************
  Pumping Summary
  ***************
  
  ---------------------------------------------------------------------------------------------------------
                                                  Min       Avg       Max     Total     Power    % Time Off
                        Percent   Number of      Flow      Flow      Flow    Volume     Usage    Pump Curve
  Pump                 Utilized   Start-Ups       LPS       LPS       LPS  10^6 ltr     Kw-hr    Low   High
  ---------------------------------------------------------------------------------------------------------
  CC-R1                   28.46           2      0.00    683.00    683.00     5.539     92.43    0.0   78.6
  CC-R2                   28.46           2      0.00    683.00    683.00     5.539     92.43    0.0   78.6
  CC-S1                   33.90           5      0.00    200.00    200.00     1.932     14.94    0.0   36.5
  CC-S2                   33.90           5      0.00    200.00    200.00     1.932     14.94    0.0   36.5
  JK-R1                    5.46          76      0.00    999.90   1000.00     1.556      4.53    0.0    0.0
  JK-R2                    5.46          76      0.00    999.90   1000.00     1.556      4.53    0.0    0.0
  JK-S                    21.54         104      0.00    299.91    300.00     1.841     41.32    0.0    0.0
  

  Analysis begun on:  Thu Jan 16 14:26:31 2025
  Analysis ended on:  Thu Jan 16 14:26:33 2025
  Total elapsed time: 00:00:02