
  EPA STORM WATER MANAGEMENT MODEL - VERSION 5.2 (Build 5.2.4)
  PYSWMM TOOLKIT API - VERSION v1.0 (2023-11-27)
  ------------------------------------------------------------

  WARNING 04: minimum elevation drop used for Conduit WS02004404WS02004405
  WARNING 03: negative offset ignored for Link YS02001904YS02001907
  
  ****************
  Analysis Options
  ****************
  Flow Units ............... LPS
  Process Models:
    Rainfall/Runoff ........ YES
    RDII ................... NO
    Snowmelt ............... NO
    Groundwater ............ NO
    Flow Routing ........... YES
    Ponding Allowed ........ NO
    Water Quality .......... NO
  Infiltration Method ...... HORTON
  Flow Routing Method ...... DYNWAVE
  Surcharge Method ......... EXTRAN
  Starting Date ............ 08/28/2015 08:00:00
  Ending Date .............. 08/28/2015 16:00:00
  Antecedent Dry Days ...... 8.0
  Report Time Step ......... 00:01:00
  Wet Time Step ............ 00:01:00
  Dry Time Step ............ 00:01:00
  Routing Time Step ........ 30.00 sec
  Variable Time Step ....... YES
  Maximum Trials ........... 8
  Number of Threads ........ 4
  Head Tolerance ........... 0.001500 m
  
  
  **************************        Volume         Depth
  Runoff Quantity Continuity     hectare-m            mm
  **************************     ---------       -------
  Total Precipitation ......         7.481       225.541
  Evaporation Loss .........         0.000         0.000
  Infiltration Loss ........         0.111         3.352
  Surface Runoff ...........         7.338       221.227
  Final Storage ............         0.033         1.003
  Continuity Error (%) .....        -0.018
  
  
  **************************        Volume        Volume
  Flow Routing Continuity        hectare-m      10^6 ltr
  **************************     ---------     ---------
  Dry Weather Inflow .......         0.025         0.248
  Wet Weather Inflow .......         7.336        73.363
  Groundwater Inflow .......         0.000         0.000
  RDII Inflow ..............         0.000         0.000
  External Inflow ..........         0.083         0.825
  External Outflow .........         3.247        32.472
  Flooding Loss ............         4.416        44.163
  Evaporation Loss .........         0.000         0.000
  Exfiltration Loss ........         0.000         0.000
  Initial Stored Volume ....         0.243         2.431
  Final Stored Volume ......         0.044         0.444
  Continuity Error (%) .....        -0.276
  
  
  *************************
  Highest Continuity Errors
  *************************
  Node YS02001583 (-16.92%)
  Node YS02001884 (5.64%)
  Node WS02006256 (-4.56%)
  
  
  ***************************
  Time-Step Critical Elements
  ***************************
  Link WS02006238WS02006235 (22.95%)
  Link YS02001793JiankangQianchi (17.17%)
  Link WS02004404WS02004405 (14.56%)
  Link WS02003066WSF200 (11.70%)
  Link YS02001791YS02001793 (9.84%)
  
  
  ********************************
  Highest Flow Instability Indexes
  ********************************
  Link YS02001602YS02001605 (55)
  Link YS02001605YS02001607 (49)
  Link YS02001607YS02001610 (46)
  Link WS02006113WS02006111 (44)
  Link YS02001884YS02001887 (40)
  
  
  *********************************
  Most Frequent Nonconverging Nodes
  *********************************
  Node CC-1 (48.61%)
  Node CC-2 (48.61%)
  Node JK-1 (48.61%)
  Node JK-2 (48.61%)
  Node WSC (48.61%)
  
  
  *************************
  Routing Time Step Summary
  *************************
  Minimum Time Step           :     0.00 sec
  Average Time Step           :     2.34 sec
  Maximum Time Step           :     6.43 sec
  % of Time in Steady State   :     0.00
  Average Iterations per Step :     5.38
  % of Steps Not Converging   :    48.61
  Time Step Frequencies       :
     30.000 - 13.228 sec      :     0.00 %
     13.228 -  5.833 sec      :     7.81 %
      5.833 -  2.572 sec      :    22.76 %
      2.572 -  1.134 sec      :    50.21 %
      1.134 -  0.500 sec      :    19.22 %
  
  
  ***************************
  Subcatchment Runoff Summary
  ***************************
  
  ------------------------------------------------------------------------------------------------------------------------------
                            Total      Total      Total      Total     Imperv       Perv      Total       Total     Peak  Runoff
                           Precip      Runon       Evap      Infil     Runoff     Runoff     Runoff      Runoff   Runoff   Coeff
  Subcatchment                 mm         mm         mm         mm         mm         mm         mm    10^6 ltr      LPS
  ------------------------------------------------------------------------------------------------------------------------------
  sub60                    225.54       0.00       0.00       1.97     197.31      25.10     222.41        2.92   551.07   0.986
  sub61                    225.54       0.00       0.00       2.87     186.10      35.48     221.58        4.07   767.99   0.982
  sub62                    225.54       0.00       0.00       1.31     206.24      16.74     222.97        6.11  1148.49   0.989
  sub63                    225.54       0.00       0.00       5.35     159.19      60.06     219.25        4.98   936.98   0.972
  sub64                    225.54       0.00       0.00       2.70     190.52      31.13     221.66        5.32   999.93   0.983
  sub65                    225.54       0.00       0.00       2.34     194.98      26.99     221.97        6.11  1145.50   0.984
  sub66                    225.54       0.00       0.00       6.68     159.06      58.73     217.79       10.16  1789.19   0.966
  sub67                    225.54       0.00       0.00       1.25     206.30      16.80     223.11        4.15   782.26   0.989
  sub68                    225.54       0.00       0.00       2.38     192.81      29.20     222.01        6.11  1151.70   0.984
  sub69                    225.54       0.00       0.00       2.20     191.61      31.63     223.25        8.26  1537.48   0.990
  sub70                    225.54       0.00       0.00       7.37     148.69      69.31     218.00        6.30  1053.12   0.967
  sub71                    225.54       0.00       0.00       1.35     206.18      16.69     222.88        5.83  1092.10   0.988
  sub72                    225.54       0.00       0.00       1.21     208.35      14.58     222.93        3.07   570.26   0.988
  
  
  ******************
  Node Depth Summary
  ******************
  
  ---------------------------------------------------------------------------------
                                 Average  Maximum  Maximum  Time of Max    Reported
                                   Depth    Depth      HGL   Occurrence   Max Depth
  Node                 Type       Meters   Meters   Meters  days hr:min      Meters
  ---------------------------------------------------------------------------------
  WS02003060           JUNCTION     0.28     0.38     5.31     0  03:26        0.38
  WS02003066           JUNCTION     0.22     0.30     5.85     0  03:26        0.30
  WS02003067           JUNCTION     0.55     0.70     6.02     0  03:26        0.70
  WS02003069           JUNCTION     0.31     0.43     5.01     0  03:27        0.43
  WS02003072           JUNCTION     0.37     0.50     4.87     0  03:27        0.50
  WS02003073           JUNCTION     0.21     0.30     4.36     0  03:28        0.30
  WS02004401           JUNCTION     0.68     0.87     6.87     0  03:23        0.87
  WS02004402           JUNCTION     0.70     0.90     6.86     0  03:23        0.90
  WS02004403           JUNCTION     0.72     0.92     6.85     0  03:24        0.91
  WS02004404           JUNCTION     0.80     1.01     6.86     0  03:24        0.99
  WS02004405           JUNCTION     0.78     0.97     6.82     0  03:24        0.97
  WS02004406           JUNCTION     0.78     0.96     6.79     0  03:24        0.95
  WS02004407           JUNCTION     0.21     0.30     6.61     0  03:24        0.29
  WS02004409           JUNCTION     0.47     0.66     6.43     0  03:24        0.66
  WS02004410           JUNCTION     0.49     0.68     6.40     0  03:25        0.68
  WS02004411           JUNCTION     0.51     0.69     6.37     0  03:25        0.69
  WS02004412           JUNCTION     0.52     0.70     6.34     0  03:25        0.70
  WS02004413           JUNCTION     0.68     0.86     6.33     0  03:25        0.86
  WS02006109           JUNCTION     0.76     1.19     7.81     0  01:41        1.00
  WS02006110           JUNCTION     0.74     1.28     7.86     0  03:27        0.99
  WS02006111           JUNCTION     0.21     0.29     6.99     0  03:16        0.29
  WS02006112           JUNCTION     0.85     1.13     7.01     0  03:33        1.08
  WS02006113           JUNCTION     0.33     0.46     7.35     0  01:41        0.46
  WS02006115           JUNCTION     0.57     0.77     6.91     0  03:23        0.77
  WS02006116           JUNCTION     0.65     0.85     6.89     0  03:23        0.85
  WS02006228           JUNCTION     0.77     1.40     8.05     0  01:41        1.11
  WS02006229           JUNCTION     0.75     1.46     8.15     0  01:41        1.21
  WS02006230           JUNCTION     0.79     1.69     8.44     0  01:41        1.24
  WS02006231           JUNCTION     0.56     2.24     9.36     0  01:25        1.94
  WS02006232           JUNCTION     0.71     2.18     9.22     0  01:41        2.18
  WS02006234           JUNCTION     0.66     1.96     9.12     0  01:26        1.96
  WS02006235           JUNCTION     0.71     2.00     9.16     0  01:22        2.00
  WS02006238           JUNCTION     0.74     2.15     9.29     0  01:22        2.15
  WS02006239           JUNCTION     0.72     2.03     9.24     0  01:30        2.03
  WS02006240           JUNCTION     0.70     2.10     9.39     0  01:14        2.10
  WS02006242           JUNCTION     0.78     1.55     8.82     0  01:14        1.55
  WS02006243           JUNCTION     0.71     1.48     8.90     0  01:30        1.48
  WS02006245           JUNCTION     0.72     1.56     9.04     0  01:41        1.56
  WS02006247           JUNCTION     0.74     1.47     8.97     0  01:41        1.47
  WS02006248           JUNCTION     0.71     1.10     8.69     0  01:13        1.10
  WS02006249           JUNCTION     0.74     1.09     8.69     0  01:13        1.09
  WS02006251           JUNCTION     0.75     1.48     9.15     0  04:21        1.23
  WS02006252           JUNCTION     0.46     1.50     9.74     0  00:00        1.50
  WS02006256           JUNCTION     1.31     2.35     9.28     0  00:00        2.35
  WSF200               JUNCTION     0.20     0.29     5.52     0  03:26        0.29
  YS02001580           JUNCTION     0.35     1.05     9.59     0  01:06        0.79
  YS02001583           JUNCTION     0.39     1.14     9.64     0  01:06        0.84
  YS02001586           JUNCTION     0.56     1.13     9.30     0  01:05        1.13
  YS02001590           JUNCTION     0.70     1.40     9.26     0  01:05        1.40
  YS02001593           JUNCTION     0.63     1.34     9.21     0  01:05        1.29
  YS02001596           JUNCTION     0.82     1.71     9.13     0  01:05        1.68
  YS02001600           JUNCTION     0.93     1.87     9.00     0  01:05        1.87
  YS02001601           JUNCTION     1.12     2.06     8.90     0  01:05        2.06
  YS02001602           JUNCTION     1.00     1.87     8.77     0  01:07        1.87
  YS02001605           JUNCTION     0.94     1.78     8.68     0  01:07        1.78
  YS02001607           JUNCTION     0.89     1.68     8.53     0  01:07        1.66
  YS02001610           JUNCTION     0.93     1.68     8.48     0  01:07        1.68
  YS02001613           JUNCTION     0.90     1.70     8.54     0  01:07        1.69
  YS02001616           JUNCTION     0.84     1.61     8.52     0  01:07        1.61
  YS02001619           JUNCTION     0.83     1.61     8.54     0  01:07        1.61
  YS02001622           JUNCTION     0.81     1.62     8.52     0  01:07        1.62
  YS02001625           JUNCTION     1.04     1.78     8.38     0  01:07        1.78
  YS02001629           JUNCTION     1.00     1.85     8.40     0  01:07        1.85
  YS02001633           JUNCTION     1.09     2.06     8.51     0  01:08        2.01
  YS02001641           JUNCTION     1.07     1.98     8.41     0  01:08        1.96
  YS02001644           JUNCTION     1.07     1.92     8.35     0  01:08        1.92
  YS02001647           JUNCTION     0.89     1.86     8.47     0  02:51        1.86
  YS02001649           JUNCTION     1.01     2.05     8.44     0  01:09        2.05
  YS02001652           JUNCTION     0.87     2.16     8.76     0  01:08        1.97
  YS02001655           JUNCTION     0.74     2.20     9.05     0  01:08        1.72
  YS02001658           JUNCTION     0.59     2.02     9.17     0  01:08        1.51
  YS02001661           JUNCTION     0.50     1.57     8.98     0  01:09        1.32
  YS02001664           JUNCTION     0.20     0.87     8.79     0  01:10        0.86
  YS02001745           JUNCTION     0.35     2.25     9.77     0  01:09        0.81
  YS02001748           JUNCTION     0.57     2.27     9.35     0  01:09        1.25
  YS02001751           JUNCTION     0.68     2.20     9.08     0  01:09        1.51
  YS02001754           JUNCTION     0.83     2.20     8.81     0  01:09        1.83
  YS02001757           JUNCTION     1.05     2.21     8.47     0  01:09        2.21
  YS02001759           JUNCTION     1.00     2.20     8.57     0  01:09        2.18
  YS02001762           JUNCTION     0.99     2.15     8.55     0  01:09        2.15
  YS02001765           JUNCTION     0.96     2.10     8.55     0  01:08        2.10
  YS02001767           JUNCTION     0.95     2.03     8.52     0  01:09        2.03
  YS02001770           JUNCTION     0.96     1.95     8.44     0  01:08        1.95
  YS02001774           JUNCTION     1.02     2.05     8.47     0  01:08        2.03
  YS02001779           JUNCTION     0.82     1.68     8.37     0  01:08        1.68
  YS02001783           JUNCTION     0.59     1.24     7.38     0  01:08        1.24
  YS02001784           JUNCTION     0.56     1.16     7.23     0  01:07        1.15
  YS02001786           JUNCTION     0.45     1.00     7.03     0  01:07        0.88
  YS02001788           JUNCTION     0.32     0.62     6.60     0  01:13        0.62
  YS02001790           JUNCTION     0.36     0.73     6.37     0  01:43        0.73
  YS02001791           JUNCTION     0.22     0.44     5.91     0  01:32        0.44
  YS02001793           JUNCTION     0.12     0.26     5.10     0  01:43        0.26
  YS02001882           JUNCTION     0.78     1.83     8.55     0  01:07        1.64
  YS02001884           JUNCTION     0.87     1.93     8.55     0  01:07        1.77
  YS02001887           JUNCTION     0.94     1.96     8.50     0  01:07        1.83
  YS02001890           JUNCTION     0.97     1.81     8.32     0  01:07        1.81
  YS02001895           JUNCTION     0.74     1.75     8.49     0  01:07        1.62
  YS02001898           JUNCTION     0.74     1.77     8.51     0  01:07        1.61
  YS02001901           JUNCTION     0.85     1.87     8.48     0  01:07        1.70
  YS02001904           JUNCTION     0.83     1.76     8.39     0  01:07        1.66
  YS02001907           JUNCTION     1.13     1.96     8.25     0  01:07        1.96
  YS02001910           JUNCTION     0.98     2.01     8.52     0  01:08        1.95
  YS02001915           JUNCTION     0.83     2.00     8.72     0  01:07        1.89
  YS02001918           JUNCTION     0.63     1.81     8.88     0  01:07        1.55
  YS02001920           JUNCTION     0.71     2.14     9.15     0  01:07        1.64
  YS02001923           JUNCTION     0.54     2.03     9.29     0  01:08        1.39
  YS02001926           JUNCTION     0.49     1.90     9.35     0  01:08        1.22
  YS02001929           JUNCTION     0.36     1.78     9.47     0  01:08        1.00
  YS02006553           JUNCTION     1.14     1.99     8.28     0  01:54        1.99
  YS02006556           JUNCTION     1.11     1.96     8.27     0  01:19        1.96
  YS02006558           JUNCTION     1.15     2.00     8.27     0  01:23        2.00
  YS02006561           JUNCTION     0.42     0.92     7.58     0  01:07        0.89
  YS02163301           JUNCTION     1.03     1.94     8.46     0  01:08        1.94
  YS02163601           JUNCTION     1.12     2.08     8.48     0  01:08        2.03
  YS02164001           JUNCTION     1.06     1.99     8.45     0  01:08        1.96
  CC-1                 OUTFALL      0.00     0.00     0.00     0  00:00        0.00
  CC-2                 OUTFALL      0.00     0.00     0.00     0  00:00        0.00
  JK-1                 OUTFALL      0.00     0.00     0.00     0  00:00        0.00
  JK-2                 OUTFALL      0.00     0.00     0.00     0  00:00        0.00
  WSC                  OUTFALL      0.21     0.30     0.97     0  03:28        0.30
  CC-storage           STORAGE      1.02     2.28     7.78     0  03:01        2.28
  JK-storage           STORAGE      0.15     2.99     3.79     0  00:00        0.68
  
  
  *******************
  Node Inflow Summary
  *******************
  
  -------------------------------------------------------------------------------------------------
                                  Maximum  Maximum                  Lateral       Total        Flow
                                  Lateral    Total  Time of Max      Inflow      Inflow     Balance
                                   Inflow   Inflow   Occurrence      Volume      Volume       Error
  Node                 Type           LPS      LPS  days hr:min    10^6 ltr    10^6 ltr     Percent
  -------------------------------------------------------------------------------------------------
  WS02003060           JUNCTION     16.53   550.68     0  03:26       0.471        7.23       0.028
  WS02003066           JUNCTION      0.00   533.47     0  03:26           0        6.77       0.022
  WS02003067           JUNCTION      0.00   533.23     0  03:26           0        6.77       0.060
  WS02003069           JUNCTION      0.32   550.60     0  03:27     0.00912        7.24       0.053
  WS02003072           JUNCTION      0.00   549.58     0  03:27           0        7.24       0.098
  WS02003073           JUNCTION      1.82   550.65     0  03:28      0.0519        7.28       0.074
  WS02004401           JUNCTION      0.00   540.67     0  03:17           0        6.86       0.150
  WS02004402           JUNCTION      0.00   538.14     0  03:26           0        6.85       0.153
  WS02004403           JUNCTION      0.00   538.35     0  03:24           0        6.84       0.148
  WS02004404           JUNCTION      0.16   549.34     0  03:24     0.00462        6.84       0.089
  WS02004405           JUNCTION      0.04   597.64     0  03:24     0.00109        6.83       0.117
  WS02004406           JUNCTION      0.00   542.79     0  03:24           0        6.83       0.307
  WS02004407           JUNCTION      0.00   537.11     0  03:24           0         6.8       0.015
  WS02004409           JUNCTION      0.00   536.16     0  03:24           0         6.8       0.039
  WS02004410           JUNCTION      0.00   535.40     0  03:24           0         6.8       0.066
  WS02004411           JUNCTION      0.00   534.71     0  03:25           0         6.8       0.082
  WS02004412           JUNCTION      0.00   534.29     0  03:25           0        6.79       0.109
  WS02004413           JUNCTION      0.00   533.78     0  03:25           0        6.78       0.203
  WS02006109           JUNCTION      1.23   573.07     0  01:41      0.0351        6.91       0.088
  WS02006110           JUNCTION      0.00   577.18     0  01:41           0         6.9       0.089
  WS02006111           JUNCTION      0.00   560.34     0  01:41           0        6.89       0.011
  WS02006112           JUNCTION      0.00   544.56     0  03:16           0        6.89       0.296
  WS02006113           JUNCTION      0.00   576.61     0  01:41           0        6.89       0.033
  WS02006115           JUNCTION      0.00   550.68     0  03:16           0        6.87       0.104
  WS02006116           JUNCTION      0.00   540.42     0  03:19           0        6.86      -0.002
  WS02006228           JUNCTION      0.00   567.90     0  01:41           0        6.87       0.028
  WS02006229           JUNCTION      0.00   566.30     0  01:41           0        6.88       0.090
  WS02006230           JUNCTION     10.28   619.26     0  03:45       0.293        6.88      -0.028
  WS02006231           JUNCTION      0.00   638.24     0  03:45           0        6.57      -0.190
  WS02006232           JUNCTION      0.00   634.03     0  03:45           0         6.6       0.386
  WS02006234           JUNCTION      0.00   626.27     0  01:14           0        6.57      -0.468
  WS02006235           JUNCTION      0.00   632.57     0  01:10           0        6.66       0.300
  WS02006238           JUNCTION      0.00   425.50     0  04:13           0        5.24      -0.017
  WS02006239           JUNCTION      0.00   424.56     0  04:13           0        5.19      -0.028
  WS02006240           JUNCTION      0.00   421.74     0  04:13           0        5.15      -0.019
  WS02006242           JUNCTION      0.00   422.60     0  04:13           0        5.14      -0.037
  WS02006243           JUNCTION      0.00   423.33     0  04:13           0        5.13       0.010
  WS02006245           JUNCTION      0.00   424.29     0  04:13           0        5.15       0.285
  WS02006247           JUNCTION      0.00   425.67     0  04:13           0        5.15       0.029
  WS02006248           JUNCTION      0.00   424.79     0  04:21           0        5.18       0.094
  WS02006249           JUNCTION      0.00   471.36     0  01:07           0        5.49       0.253
  WS02006251           JUNCTION      0.08   407.40     0  04:21     0.00219        5.49      -0.007
  WS02006252           JUNCTION      0.00   400.00     0  00:00           0        5.49      -0.016
  WS02006256           JUNCTION      0.00   345.36     0  02:03           0        2.28      -4.364
  WSF200               JUNCTION      0.00   533.60     0  03:26           0        6.76       0.005
  YS02001580           JUNCTION      0.00   285.41     0  01:06           0     0.00482      -6.226
  YS02001583           JUNCTION      0.00   301.52     0  01:05           0      0.0148     -14.474
  YS02001586           JUNCTION   1053.12  1053.20     0  01:32         6.3        6.31       0.029
  YS02001590           JUNCTION      0.00   318.66     0  01:41           0        2.74      -0.056
  YS02001593           JUNCTION      0.00   318.28     0  01:41           0        2.74       0.017
  YS02001596           JUNCTION      0.00   317.98     0  01:43           0        2.75      -0.037
  YS02001600           JUNCTION      0.00   318.26     0  01:44           0        2.75       0.029
  YS02001601           JUNCTION   1537.48  1855.48     0  01:30        8.26          11       0.011
  YS02001602           JUNCTION      0.00   620.03     0  01:06           0        3.66       0.019
  YS02001605           JUNCTION      0.00   620.05     0  01:06           0         3.2       0.031
  YS02001607           JUNCTION      0.00   619.75     0  01:06           0         3.2       0.039
  YS02001610           JUNCTION      0.00   954.23     0  01:30           0        6.03       0.050
  YS02001613           JUNCTION      0.00   618.26     0  01:30           0        3.71       0.029
  YS02001616           JUNCTION      0.00   636.80     0  01:07           0        3.72      -0.013
  YS02001619           JUNCTION   1789.19  1789.19     0  01:32        10.2          11       0.002
  YS02001622           JUNCTION      0.00  1053.91     0  01:37           0        8.13      -0.009
  YS02001625           JUNCTION      0.00  1505.45     0  01:29           0        10.3       0.063
  YS02001629           JUNCTION      0.00   735.69     0  01:06           0         3.9       0.061
  YS02001633           JUNCTION   1145.70  1254.54     0  01:07        6.12        7.69       0.041
  YS02001641           JUNCTION      0.00  1235.20     0  01:07           0        5.38       0.051
  YS02001644           JUNCTION    999.97  1864.47     0  01:08        5.32        10.7       0.028
  YS02001647           JUNCTION      0.00  1862.24     0  01:08           0        5.68       0.007
  YS02001649           JUNCTION      0.00  2125.39     0  01:08           0        10.7       0.004
  YS02001652           JUNCTION      0.00   943.16     0  01:10           0        4.99      -0.115
  YS02001655           JUNCTION      0.15   942.44     0  01:10     0.00439        4.99       0.070
  YS02001658           JUNCTION      0.00   942.44     0  01:10           0        4.99       0.001
  YS02001661           JUNCTION      0.00   940.58     0  01:30           0        4.98      -0.206
  YS02001664           JUNCTION    936.98   936.98     0  01:30        4.98        4.98       0.006
  YS02001745           JUNCTION    551.07   687.89     0  01:09        2.92        2.92       0.074
  YS02001748           JUNCTION      0.04   675.51     0  01:09     0.00128        2.92      -0.125
  YS02001751           JUNCTION      0.01   744.39     0  01:08    0.000313        2.93       0.087
  YS02001754           JUNCTION      0.26   706.09     0  01:08     0.00741        2.95      -0.113
  YS02001757           JUNCTION      0.00  3546.16     0  01:25           0        21.5       0.020
  YS02001759           JUNCTION    768.03  1419.01     0  01:26        4.07        7.92      -0.001
  YS02001762           JUNCTION      0.00   728.09     0  01:09           0        3.86      -0.004
  YS02001765           JUNCTION      0.00   726.39     0  01:09           0        3.85      -0.003
  YS02001767           JUNCTION      0.54   733.33     0  01:08      0.0152        3.85       0.013
  YS02001770           JUNCTION   1148.64  1148.64     0  01:30        6.11        6.15      -0.013
  YS02001774           JUNCTION      0.00   551.84     0  01:08           0        2.33       0.057
  YS02001779           JUNCTION      0.01   549.16     0  01:08    0.000142        2.29      -0.056
  YS02001783           JUNCTION      0.00  1162.40     0  01:10           0        9.01       0.002
  YS02001784           JUNCTION      1.06  1163.64     0  01:10      0.0302        9.04       0.006
  YS02001786           JUNCTION      0.06  1163.27     0  01:10      0.0016        9.04       0.009
  YS02001788           JUNCTION      0.07  1163.24     0  01:10     0.00202        9.04       0.003
  YS02001790           JUNCTION      0.15  1184.47     0  01:08     0.00442        9.05       0.013
  YS02001791           JUNCTION      0.00  1294.08     0  01:20           0        9.04      -0.033
  YS02001793           JUNCTION      0.00  1256.06     0  01:43           0        9.05      -0.038
  YS02001882           JUNCTION      0.00   129.42     0  01:07           0      0.0134       5.256
  YS02001884           JUNCTION      0.00   238.41     0  01:06           0      0.0496       5.972
  YS02001887           JUNCTION    782.71   784.74     0  01:30        4.16        4.19       0.099
  YS02001890           JUNCTION      0.00   785.80     0  01:30           0        4.15       0.125
  YS02001895           JUNCTION      0.00   632.94     0  01:07           0        3.46       0.110
  YS02001898           JUNCTION      0.00   631.84     0  01:07           0        3.46      -0.056
  YS02001901           JUNCTION      0.00   627.36     0  01:07           0        3.48       0.105
  YS02001904           JUNCTION      0.00   623.23     0  01:07           0         3.5       0.082
  YS02001907           JUNCTION      0.00  2187.45     0  01:30           0        12.5       0.147
  YS02001910           JUNCTION      0.00  1665.79     0  01:30           0        8.98       0.080
  YS02001915           JUNCTION   1092.12  1665.41     0  01:30        5.83        9.04       0.002
  YS02001918           JUNCTION      0.00   932.96     0  01:07           0        3.25       0.013
  YS02001920           JUNCTION      2.87   897.09     0  01:07      0.0818        3.21       0.005
  YS02001923           JUNCTION      0.04  1074.00     0  01:07     0.00107        3.11      -0.016
  YS02001926           JUNCTION      0.05  1433.01     0  01:08     0.00149        3.09      -0.013
  YS02001929           JUNCTION    570.26   972.71     0  01:08        3.06        3.07      -0.090
  YS02006553           JUNCTION      0.00   813.18     0  03:02           0        2.98       0.409
  YS02006556           JUNCTION      0.00   813.86     0  03:02           0        3.01       0.274
  YS02006558           JUNCTION   1152.58  1173.70     0  01:07        6.13        9.08       0.039
  YS02006561           JUNCTION      0.00  1173.04     0  01:07           0        9.01      -0.001
  YS02163301           JUNCTION      0.00   708.95     0  03:09           0        3.91       0.049
  YS02163601           JUNCTION      0.11  1249.56     0  01:07     0.00313        5.35       0.098
  YS02164001           JUNCTION      0.00  1244.11     0  01:07           0        5.36       0.053
  CC-1                 OUTFALL       0.00   683.00     0  00:00           0         9.1       0.000
  CC-2                 OUTFALL       0.00   683.00     0  00:00           0         9.1       0.000
  JK-1                 OUTFALL       0.00  1000.00     0  00:00           0        3.49       0.000
  JK-2                 OUTFALL       0.00  1000.00     0  00:00           0        3.49       0.000
  WSC                  OUTFALL       0.00   549.85     0  03:28           0        7.28       0.000
  CC-storage           STORAGE       0.00  3545.45     0  01:25           0        23.7      -0.232
  JK-storage           STORAGE       0.00  1404.40     0  02:34           0         9.2      -0.664
  
  
  **********************
  Node Surcharge Summary
  **********************
  
  Surcharging occurs when water rises above the top of the highest conduit.
  ---------------------------------------------------------------------
                                               Max. Height   Min. Depth
                                   Hours       Above Crown    Below Rim
  Node                 Type      Surcharged         Meters       Meters
  ---------------------------------------------------------------------
  WS02004404           JUNCTION        0.01          0.012        2.768
  WS02006109           JUNCTION        3.40          0.372        1.448
  WS02006110           JUNCTION        0.55          0.369        1.481
  WS02006112           JUNCTION        2.20          0.125        1.555
  WS02006228           JUNCTION        3.39          0.572        1.628
  WS02006229           JUNCTION        3.42          0.657        1.793
  WS02006230           JUNCTION        0.58          0.610        0.960
  WS02006231           JUNCTION        1.72          1.530        0.000
  WS02006232           JUNCTION        3.50          1.480        0.000
  WS02006234           JUNCTION        2.37          1.240        0.000
  WS02006235           JUNCTION        2.95          1.290        0.000
  WS02006238           JUNCTION        3.24          1.430        0.000
  WS02006239           JUNCTION        3.32          1.290        0.000
  WS02006240           JUNCTION        3.41          1.390        0.000
  WS02006242           JUNCTION        3.51          0.820        0.000
  WS02006243           JUNCTION        3.43          0.770        0.000
  WS02006245           JUNCTION        3.42          0.850        0.000
  WS02006247           JUNCTION        3.44          0.760        0.000
  WS02006248           JUNCTION        3.41          0.380        0.000
  WS02006249           JUNCTION        3.43          0.390        0.000
  WS02006251           JUNCTION        2.35          0.448        0.732
  WS02006252           JUNCTION        3.81          1.100        0.000
  WS02006256           JUNCTION        6.37          2.050        0.000
  YS02001580           JUNCTION        2.05          0.450        0.000
  YS02001583           JUNCTION        2.06          0.500        0.000
  YS02001586           JUNCTION        2.14          0.510        0.000
  YS02001590           JUNCTION        2.19          0.750        0.000
  YS02001593           JUNCTION        2.19          0.725        0.115
  YS02001596           JUNCTION        2.25          0.978        0.092
  YS02001600           JUNCTION        2.33          1.190        0.000
  YS02001601           JUNCTION        2.51          1.440        0.000
  YS02001602           JUNCTION        2.47          1.270        0.000
  YS02001605           JUNCTION        2.45          1.180        0.000
  YS02001607           JUNCTION        2.21          0.680        0.000
  YS02001610           JUNCTION        2.22          0.680        0.000
  YS02001613           JUNCTION        2.21          0.700        0.000
  YS02001616           JUNCTION        2.18          0.610        0.000
  YS02001619           JUNCTION        2.17          0.610        0.000
  YS02001622           JUNCTION        2.17          0.620        0.000
  YS02001625           JUNCTION        2.31          0.780        0.000
  YS02001629           JUNCTION        2.15          0.470        0.000
  YS02001633           JUNCTION        2.36          1.039        0.021
  YS02001641           JUNCTION        2.37          0.975        0.125
  YS02001644           JUNCTION        2.36          0.920        0.000
  YS02001647           JUNCTION        2.24          0.856        0.044
  YS02001649           JUNCTION        2.37          1.050        0.000
  YS02001652           JUNCTION        2.21          1.130        0.000
  YS02001655           JUNCTION        2.08          1.200        0.000
  YS02001658           JUNCTION        1.89          1.024        0.276
  YS02001661           JUNCTION        0.17          0.501        0.889
  YS02001745           JUNCTION        0.01          1.254        0.096
  YS02001748           JUNCTION        1.86          1.190        0.000
  YS02001751           JUNCTION        2.04          1.200        0.000
  YS02001754           JUNCTION        2.17          1.150        0.000
  YS02001757           JUNCTION        2.44          1.210        0.000
  YS02001759           JUNCTION        2.37          1.203        0.007
  YS02001762           JUNCTION        2.35          1.150        0.000
  YS02001765           JUNCTION        2.31          1.100        0.000
  YS02001767           JUNCTION        2.28          1.030        0.000
  YS02001770           JUNCTION        2.25          0.920        0.000
  YS02001774           JUNCTION        2.33          1.050        0.000
  YS02001779           JUNCTION        2.15          0.680        0.000
  YS02001783           JUNCTION        1.99          0.443        1.157
  YS02001784           JUNCTION        1.97          0.357        1.133
  YS02001786           JUNCTION        1.92          0.199        1.231
  YS02001882           JUNCTION        1.96          0.830        0.000
  YS02001884           JUNCTION        1.97          0.870        0.000
  YS02001887           JUNCTION        1.98          0.912        0.038
  YS02001890           JUNCTION        1.99          0.760        0.000
  YS02001895           JUNCTION        1.95          0.745        0.005
  YS02001898           JUNCTION        1.95          0.740        0.000
  YS02001901           JUNCTION        1.98          0.870        0.000
  YS02001904           JUNCTION        1.97          0.764        0.086
  YS02001907           JUNCTION        2.07          0.950        0.000
  YS02001910           JUNCTION        2.00          1.013        0.087
  YS02001915           JUNCTION        1.96          1.000        0.000
  YS02001918           JUNCTION        1.91          0.810        0.000
  YS02001920           JUNCTION        1.92          1.140        0.000
  YS02001923           JUNCTION        1.02          0.820        0.000
  YS02001926           JUNCTION        1.13          0.900        0.000
  YS02001929           JUNCTION        0.01          0.780        0.000
  YS02006553           JUNCTION        2.08          0.992        0.198
  YS02006556           JUNCTION        2.04          0.917        0.433
  YS02006558           JUNCTION        2.03          0.901        0.499
  YS02006561           JUNCTION        1.89          0.117        1.033
  YS02163301           JUNCTION        2.34          0.942        0.088
  YS02163601           JUNCTION        2.40          1.078        0.002
  YS02164001           JUNCTION        2.36          0.991        0.109
  
  
  *********************
  Node Flooding Summary
  *********************
  
  Flooding refers to all water that overflows a node, whether it ponds or not.
  --------------------------------------------------------------------------
                                                             Total   Maximum
                                 Maximum   Time of Max       Flood    Ponded
                        Hours       Rate    Occurrence      Volume     Depth
  Node                 Flooded       LPS   days hr:min    10^6 ltr    Meters
  --------------------------------------------------------------------------
  WS02006231              0.01     76.56      0  02:03       0.000     0.000
  WS02006232              0.01      6.66      0  03:45       0.000     0.000
  WS02006234              0.01    152.51      0  02:03       0.001     0.000
  WS02006235              0.01     44.50      0  01:32       0.000     0.000
  WS02006238              0.01     27.47      0  01:32       0.000     0.000
  WS02006239              0.01     20.00      0  02:59       0.000     0.000
  WS02006240              0.01     34.95      0  01:14       0.000     0.000
  WS02006242              0.04     33.99      0  01:38       0.002     0.000
  WS02006243              0.01      5.58      0  01:30       0.000     0.000
  WS02006245              0.01      3.83      0  04:21       0.000     0.000
  WS02006247              0.01      4.56      0  04:21       0.000     0.000
  WS02006248              0.49     37.74      0  03:09       0.026     0.000
  WS02006249              1.98     81.21      0  03:25       0.299     0.000
  WS02006252              0.01    245.63      0  00:00       0.000     0.000
  WS02006256              2.11    332.71      0  02:03       0.916     0.000
  YS02001580              0.01    206.54      0  01:06       0.001     0.000
  YS02001583              0.01    196.41      0  01:06       0.001     0.000
  YS02001586              1.99    735.74      0  01:32       3.557     0.000
  YS02001590              0.01    188.39      0  01:05       0.000     0.000
  YS02001600              0.01     13.06      0  01:05       0.000     0.000
  YS02001601              2.09   1457.62      0  01:30       7.344     0.000
  YS02001602              2.06     62.04      0  01:43       0.452     0.000
  YS02001605              0.01      8.72      0  01:07       0.000     0.000
  YS02001607              0.01    446.40      0  01:07       0.004     0.000
  YS02001610              2.01    954.04      0  01:30       5.160     0.000
  YS02001613              0.01     44.53      0  01:07       0.000     0.000
  YS02001616              0.21    411.22      0  01:07       0.003     0.000
  YS02001619              0.26    120.99      0  01:32       0.059     0.000
  YS02001622              0.01    250.08      0  01:07       0.001     0.000
  YS02001625              2.02   1505.25      0  01:29       8.732     0.000
  YS02001629              0.65    224.43      0  01:10       0.149     0.000
  YS02001644              1.87   1102.12      0  02:06       4.980     0.000
  YS02001649              0.01    173.59      0  01:09       0.001     0.000
  YS02001652              0.01    419.69      0  01:08       0.001     0.000
  YS02001655              0.01    370.35      0  01:08       0.001     0.000
  YS02001748              0.01     96.00      0  01:09       0.000     0.000
  YS02001751              0.01     46.15      0  01:09       0.000     0.000
  YS02001754              0.01     63.83      0  01:09       0.000     0.000
  YS02001757              0.01     70.04      0  01:09       0.000     0.000
  YS02001762              0.01     18.56      0  01:09       0.000     0.000
  YS02001765              0.01    312.27      0  01:08       0.000     0.000
  YS02001767              0.01      5.04      0  01:09       0.000     0.000
  YS02001770              0.01     61.15      0  01:08       0.000     0.000
  YS02001774              0.01     70.76      0  01:08       0.000     0.000
  YS02001779              1.81    525.18      0  02:06       2.277     0.000
  YS02001882              0.01     42.69      0  01:07       0.000     0.000
  YS02001884              0.01     42.09      0  01:07       0.000     0.000
  YS02001890              1.32    381.68      0  01:07       0.685     0.000
  YS02001898              0.01     92.84      0  01:07       0.000     0.000
  YS02001901              0.01     28.56      0  01:07       0.000     0.000
  YS02001907              1.88   2181.60      0  01:30       9.493     0.000
  YS02001915              0.01    262.15      0  01:07       0.001     0.000
  YS02001918              0.01    253.93      0  01:08       0.004     0.000
  YS02001920              0.01    316.80      0  01:07       0.000     0.000
  YS02001923              0.01    238.74      0  01:08       0.001     0.000
  YS02001926              0.01    534.03      0  01:08       0.005     0.000
  YS02001929              0.01    846.84      0  01:08       0.004     0.000
  
  
  **********************
  Storage Volume Summary
  **********************
  
  ------------------------------------------------------------------------------------------------
                         Average    Avg   Evap  Exfil     Maximum    Max    Time of Max    Maximum
                          Volume   Pcnt   Pcnt   Pcnt      Volume   Pcnt     Occurrence    Outflow
  Storage Unit           1000 m³   Full   Loss   Loss     1000 m³   Full    days hr:min        LPS
  ------------------------------------------------------------------------------------------------
  CC-storage               2.832   44.2    0.0    0.0       6.357   99.2       0  03:01    1783.53
  JK-storage               0.007    2.5    0.0    0.0       0.150   51.6       0  00:00    2300.00
  
  
  ***********************
  Outfall Loading Summary
  ***********************
  
  -----------------------------------------------------------
                         Flow       Avg       Max       Total
                         Freq      Flow      Flow      Volume
  Outfall Node           Pcnt       LPS       LPS    10^6 ltr
  -----------------------------------------------------------
  CC-1                  70.34    683.00    683.00       9.102
  CC-2                  70.34    683.00    683.00       9.102
  JK-1                  19.09   1000.00   1000.00       3.495
  JK-2                  19.09   1000.00   1000.00       3.495
  WSC                   99.95    341.27    549.85       7.278
  -----------------------------------------------------------
  System                55.76   3707.27   3901.32      32.472
  
  
  ********************
  Link Flow Summary
  ********************
  
  -----------------------------------------------------------------------------
                                 Maximum  Time of Max   Maximum    Max/    Max/
                                  |Flow|   Occurrence   |Veloc|    Full    Full
  Link                 Type          LPS  days hr:min     m/sec    Flow   Depth
  -----------------------------------------------------------------------------
  1                    CONDUIT    549.85     0  03:28      2.82    0.19    0.30
  WS02003060WS02003069 CONDUIT    550.28     0  03:27      1.64    0.22    0.34
  WS02003066WSF200     CONDUIT    533.60     0  03:26      2.85    0.09    0.22
  WS02003067WS02003066 CONDUIT    533.47     0  03:26      1.20    0.17    0.41
  WS02003069WS02003072 CONDUIT    549.58     0  03:27      1.37    0.26    0.39
  WS02003072WS02003073 CONDUIT    548.83     0  03:28      1.43    1.19    0.37
  WS02004401WS02004402 CONDUIT    538.14     0  03:26      1.22    0.65    0.89
  WS02004402WS02004403 CONDUIT    538.35     0  03:24      1.24    0.77    0.91
  WS02004403WS02004404 CONDUIT    549.18     0  03:24      1.24    0.40    0.96
  WS02004404WS02004405 CONDUIT    597.60     0  03:24      1.45    5.85    0.98
  WS02004405WS02004406 CONDUIT    542.79     0  03:24      1.46    1.07    0.96
  WS02004406WS02004407 CONDUIT    537.11     0  03:24      1.04    0.24    0.63
  WS02004407WS02004409 CONDUIT    536.16     0  03:24      1.59    0.19    0.48
  WS02004409WS02004410 CONDUIT    535.40     0  03:24      1.06    0.69    0.67
  WS02004410WS02004411 CONDUIT    534.71     0  03:25      1.12    0.73    0.68
  WS02004411WS02004412 CONDUIT    534.29     0  03:25      1.22    0.76    0.69
  WS02004412WS02004413 CONDUIT    533.78     0  03:25      1.22    0.36    0.78
  WS02004413WS02003067 CONDUIT    533.23     0  03:26      1.11    0.23    0.59
  WS02006109WS02006110 CONDUIT    577.18     0  01:41      1.15    1.11    1.00
  WS02006110WS02006113 CONDUIT    576.61     0  01:41      1.37    0.52    0.79
  WS02006111WS02006112 CONDUIT    544.56     0  03:16      1.95    0.26    0.67
  WS02006112WS02006115 CONDUIT    550.68     0  03:16      0.87    0.33    0.88
  WS02006113WS02006111 CONDUIT    560.34     0  01:41      2.47    0.67    0.46
  WS02006115WS02006116 CONDUIT    540.42     0  03:19      1.29    0.69    0.78
  WS02006116WS02004401 CONDUIT    540.67     0  03:17      1.21    0.75    0.86
  WS02006228WS02006109 CONDUIT    571.84     0  01:41      1.14    2.50    1.00
  WS02006229WS02006228 CONDUIT    567.90     0  01:41      1.13    1.88    1.00
  WS02006230WS02006229 CONDUIT    566.30     0  01:41      1.47   12.60    1.00
  WS02006231WS02006230 CONDUIT    608.98     0  03:45      1.66    9.24    1.00
  WS02006232WS02006231 CONDUIT    638.24     0  03:45      1.66    1.34    1.00
  WS02006234WS02006232 CONDUIT    634.03     0  03:45      1.65    1.28    1.00
  WS02006235WS02006234 CONDUIT    626.27     0  01:14      1.64    6.61    1.00
  WS02006238WS02006235 CONDUIT    425.42     0  04:13      1.51    0.95    1.00
  WS02006239WS02006238 CONDUIT    425.50     0  04:13      1.17    1.36    1.00
  WS02006240WS02006239 CONDUIT    424.56     0  04:13      1.28    1.34    1.00
  WS02006242WS02006240 CONDUIT    421.74     0  04:13      1.16    1.67    1.00
  WS02006243WS02006242 CONDUIT    422.60     0  04:13      1.42    0.90    1.00
  WS02006245WS02006243 CONDUIT    423.33     0  04:13      1.44    1.25    1.00
  WS02006247WS02006245 CONDUIT    424.29     0  04:13      1.43    3.36    1.00
  WS02006248WS02006247 CONDUIT    425.67     0  04:13      1.47    0.93    1.00
  WS02006249WS02006248 CONDUIT    424.79     0  04:21      1.39    2.33    1.00
  WS02006251WS02006249 CONDUIT    471.36     0  01:07      1.99    1.36    1.00
  WS02006252WS02006251 CONDUIT    407.32     0  04:21     25.54    1.50    1.00
  WS02006256WS02006235 CONDUIT    288.91     0  00:00      4.23    3.06    1.00
  WSF200WS02003060     CONDUIT    534.15     0  03:26      2.06    0.12    0.28
  YS02001580YS02001583 CONDUIT    285.41     0  01:06      1.19    1.11    1.00
  YS02001583YS02001586 CONDUIT    301.52     0  01:05      1.31    0.46    1.00
  YS02001586YS02001590 CONDUIT    318.66     0  01:41      1.42    0.56    1.00
  YS02001590YS02001593 CONDUIT    318.28     0  01:41      1.13    2.00    1.00
  YS02001593YS02001596 CONDUIT    317.98     0  01:43      1.68    0.50    1.00
  YS02001596YS02001600 CONDUIT    318.26     0  01:44      1.25    0.62    1.00
  YS02001600YS02001601 CONDUIT    318.02     0  01:41      1.12    0.55    1.00
  YS02001601YS02001602 CONDUIT    620.03     0  01:06      2.19    2.24    1.00
  YS02001602YS02001605 CONDUIT    620.05     0  01:06      2.19   13.12    1.00
  YS02001605YS02001607 CONDUIT    619.75     0  01:06      2.19    3.40    1.00
  YS02001607YS02001610 CONDUIT    679.82     0  01:06      1.06    0.65    1.00
  YS02001610YS02001613 CONDUIT    618.05     0  01:30      0.88    0.71    1.00
  YS02001613YS02001616 CONDUIT    618.26     0  01:30      0.90    0.53    1.00
  YS02001616YS02001619 CONDUIT    620.39     0  01:30      0.94    1.08    1.00
  YS02001619YS02001622 CONDUIT   1053.91     0  01:37      2.18    1.55    1.00
  YS02001622YS02001625 CONDUIT   1053.67     0  01:29      1.34    0.56    1.00
  YS02001625YS02001629 CONDUIT    735.69     0  01:06      1.11    0.35    1.00
  YS02001629YS02163301 CONDUIT    708.95     0  03:09      0.90    0.87    1.00
  YS02001633YS02163601 CONDUIT   1249.45     0  01:07      1.59    1.31    1.00
  YS02001641YS02001644 CONDUIT   1233.36     0  01:07      1.57    3.99    1.00
  YS02001644YS02001647 CONDUIT   1862.24     0  01:08      2.37    1.09    1.00
  YS02001647YS02001649 CONDUIT   1860.20     0  01:08      2.37    0.98    1.00
  YS02001649YS02001757 CONDUIT   2125.04     0  01:08      2.71    1.29    1.00
  YS02001652YS02001649 CONDUIT    943.59     0  01:10      1.66    0.47    1.00
  YS02001655YS02001652 CONDUIT    943.16     0  01:10      2.12    0.46    1.00
  YS02001658YS02001655 CONDUIT    942.29     0  01:10      2.30    0.40    1.00
  YS02001661YS02001658 CONDUIT    942.44     0  01:10      2.58    0.37    1.00
  YS02001664YS02001661 CONDUIT    940.58     0  01:30      2.55    0.29    0.93
  YS02001745YS02001748 CONDUIT    615.58     0  01:09      2.48    0.24    1.00
  YS02001748YS02001751 CONDUIT    613.98     0  01:09      2.01    0.31    1.00
  YS02001751YS02001754 CONDUIT    612.69     0  01:09      1.98    0.30    1.00
  YS02001754YS02001757 CONDUIT    613.26     0  01:09      1.20    0.25    1.00
  YS02001757CaochengTiaoxuchi CONDUIT   3545.45     0  01:25      7.10    1.53    1.00
  YS02001759YS02001757 CONDUIT   1418.78     0  01:26      1.81    1.01    1.00
  YS02001762YS02001759 CONDUIT    728.42     0  01:09      0.93    0.84    1.00
  YS02001765YS02001762 CONDUIT    728.09     0  01:09      0.93    0.68    1.00
  YS02001767YS02001765 CONDUIT    726.39     0  01:09      0.99    0.91    1.00
  YS02001770YS02001767 CONDUIT    732.80     0  01:08      1.08    2.90    1.00
  YS02001774YS02001770 CONDUIT    551.84     0  01:08      0.95    0.35    1.00
  YS02001779YS02001774 CONDUIT    549.15     0  01:08      0.72    0.28    1.00
  YS02001783YS02001784 CONDUIT   1162.58     0  01:10      2.31    1.60    1.00
  YS02001784YS02001785 CONDUIT   1163.21     0  01:10      2.31    2.71    1.00
  YS02001786YS02001788 CONDUIT   1163.17     0  01:10      2.49    2.24    0.89
  YS02001788YS02001790 CONDUIT   1184.32     0  01:08      2.77    0.87    0.84
  YS02001790YS02001791 CONDUIT   1294.08     0  01:20      3.43    1.41    0.71
  YS02001791YS02001793 CONDUIT   1256.06     0  01:43      6.79    0.54    0.43
  YS02001793JiankangQianchi CONDUIT   1404.40     0  02:34     21.68    0.11    0.50
  YS02001882YS02001884 CONDUIT    129.42     0  01:07      0.57    0.15    1.00
  YS02001884YS02001887 CONDUIT    238.41     0  01:06      0.54    0.32    1.00
  YS02001887YS02001890 CONDUIT    785.80     0  01:30      1.00    1.34    1.00
  YS02001890YS02001895 CONDUIT    632.94     0  01:07      0.81    0.29    1.00
  YS02001895YS02001898 CONDUIT    631.84     0  01:07      0.92    1.10    1.00
  YS02001898YS02001901 CONDUIT    627.36     0  01:07      0.80    0.40    1.00
  YS02001901YS02001904 CONDUIT    623.23     0  01:07      0.90    0.97    1.00
  YS02001904YS02001907 CONDUIT    621.83     0  01:07      0.79    0.22    1.00
  YS02001907YS02006553 CONDUIT    813.18     0  03:02      0.90    0.96    1.00
  YS02001910YS02001907 CONDUIT   1665.37     0  01:30      2.12    0.94    1.00
  YS02001915YS02001910 CONDUIT   1665.79     0  01:30      2.12    0.83    1.00
  YS02001918YS02001915 CONDUIT    932.96     0  01:07      1.19    0.51    1.00
  YS02001920YS02001918 CONDUIT    894.22     0  01:07      1.14    0.86    1.00
  YS02001923YS02001920 CONDUIT    858.39     0  01:07      1.11    0.39    1.00
  YS02001926YS02001923 CONDUIT   1159.88     0  01:08      1.62    1.66    1.00
  YS02001929YS02001926 CONDUIT    673.52     0  01:08      1.26    0.32    1.00
  YS02006553YS02006556 CONDUIT    813.86     0  03:02      1.04    0.70    1.00
  YS02006556YS02006558 CONDUIT    816.26     0  03:02      1.04    0.64    1.00
  YS02006558YS02006561 CONDUIT   1173.04     0  01:07      4.15    2.59    1.00
  YS02006561YS02001783 CONDUIT   1162.40     0  01:10      2.31    0.60    1.00
  YS02163301YS02001633 CONDUIT    709.72     0  03:09      0.90    0.67    1.00
  YS02163601YS02164001 CONDUIT   1244.11     0  01:07      1.58    1.10    1.00
  YS02164001YS02001641 CONDUIT   1235.20     0  01:07      1.57    1.69    1.00
  CC-R1                PUMP       683.00     0  00:00              1.00
  CC-R2                PUMP       683.00     0  00:00              1.00
  CC-S1                PUMP       200.00     0  00:00              1.00
  CC-S2                PUMP       200.00     0  00:00              1.00
  JK-R1                PUMP      1000.00     0  00:00              1.00
  JK-R2                PUMP      1000.00     0  00:00              1.00
  JK-S                 PUMP       300.00     0  00:00              1.00
  
  
  ***************************
  Flow Classification Summary
  ***************************
  
  -------------------------------------------------------------------------------------
                      Adjusted    ---------- Fraction of Time in Flow Class ---------- 
                       /Actual         Up    Down  Sub   Sup   Up    Down  Norm  Inlet 
  Conduit               Length    Dry  Dry   Dry   Crit  Crit  Crit  Crit  Ltd   Ctrl  
  -------------------------------------------------------------------------------------
  1                       1.00   0.00  0.00  0.00  0.00  1.00  0.00  0.00  0.42  0.00
  WS02003060WS02003069    1.00   0.00  0.00  0.00  0.98  0.02  0.00  0.00  0.55  0.00
  WS02003066WSF200        1.00   0.05  0.00  0.00  0.00  0.95  0.00  0.00  0.78  0.00
  WS02003067WS02003066    1.00   0.05  0.00  0.00  0.95  0.00  0.00  0.00  0.00  0.00
  WS02003069WS02003072    1.00   0.00  0.00  0.00  0.99  0.01  0.00  0.00  0.56  0.00
  WS02003072WS02003073    1.00   0.00  0.00  0.00  0.00  0.00  0.00  1.00  0.00  0.00
  WS02004401WS02004402    1.00   0.02  0.00  0.00  0.98  0.00  0.00  0.00  0.00  0.00
  WS02004402WS02004403    1.00   0.02  0.00  0.00  0.98  0.00  0.00  0.00  0.00  0.00
  WS02004403WS02004404    1.00   0.00  0.03  0.00  0.97  0.00  0.00  0.00  0.00  0.00
  WS02004404WS02004405    1.00   0.00  0.00  0.00  1.00  0.00  0.00  0.00  0.01  0.00
  WS02004405WS02004406    1.00   0.00  0.00  0.00  1.00  0.00  0.00  0.00  0.00  0.00
  WS02004406WS02004407    1.00   0.00  0.03  0.00  0.97  0.00  0.00  0.00  0.00  0.00
  WS02004407WS02004409    1.00   0.03  0.00  0.00  0.95  0.01  0.00  0.00  0.95  0.00
  WS02004409WS02004410    1.00   0.03  0.00  0.00  0.96  0.00  0.00  0.00  0.00  0.00
  WS02004410WS02004411    1.00   0.04  0.00  0.00  0.96  0.00  0.00  0.00  0.00  0.00
  WS02004411WS02004412    1.00   0.04  0.00  0.00  0.96  0.00  0.00  0.00  0.00  0.00
  WS02004412WS02004413    1.00   0.04  0.00  0.00  0.96  0.00  0.00  0.00  0.00  0.00
  WS02004413WS02003067    1.00   0.04  0.01  0.00  0.00  0.00  0.95  0.00  0.00  0.00
  WS02006109WS02006110    1.00   0.00  0.01  0.00  0.98  0.00  0.01  0.00  0.00  0.00
  WS02006110WS02006113    1.00   0.01  0.01  0.00  0.98  0.00  0.00  0.00  0.00  0.00
  WS02006111WS02006112    1.00   0.02  0.00  0.00  0.98  0.00  0.00  0.00  0.98  0.00
  WS02006112WS02006115    1.00   0.02  0.00  0.00  0.97  0.00  0.00  0.00  0.00  0.00
  WS02006113WS02006111    1.00   0.02  0.00  0.00  0.00  0.98  0.00  0.00  0.16  0.00
  WS02006115WS02006116    1.00   0.02  0.00  0.00  0.97  0.00  0.00  0.01  0.00  0.00
  WS02006116WS02004401    1.00   0.02  0.00  0.00  0.98  0.00  0.00  0.00  0.00  0.00
  WS02006228WS02006109    1.00   0.00  0.00  0.00  1.00  0.00  0.00  0.00  0.00  0.00
  WS02006229WS02006228    1.00   0.00  0.00  0.00  0.99  0.00  0.00  0.01  0.00  0.00
  WS02006230WS02006229    1.00   0.00  0.00  0.00  0.99  0.00  0.00  0.01  0.02  0.00
  WS02006231WS02006230    1.00   0.00  0.00  0.00  0.45  0.00  0.55  0.00  0.00  0.00
  WS02006232WS02006231    1.00   0.00  0.00  0.00  0.98  0.00  0.02  0.00  0.00  0.00
  WS02006234WS02006232    1.00   0.00  0.00  0.00  1.00  0.00  0.00  0.00  0.01  0.00
  WS02006235WS02006234    1.00   0.00  0.00  0.00  0.97  0.00  0.03  0.00  0.00  0.00
  WS02006238WS02006235    1.00   0.00  0.00  0.00  1.00  0.00  0.00  0.00  0.00  0.00
  WS02006239WS02006238    1.00   0.00  0.00  0.00  1.00  0.00  0.00  0.00  0.16  0.00
  WS02006240WS02006239    1.00   0.00  0.00  0.00  0.73  0.00  0.00  0.27  0.04  0.00
  WS02006242WS02006240    1.00   0.00  0.00  0.00  0.99  0.00  0.01  0.00  0.02  0.00
  WS02006243WS02006242    1.00   0.00  0.00  0.00  0.99  0.00  0.00  0.01  0.46  0.00
  WS02006245WS02006243    1.00   0.00  0.00  0.00  0.69  0.00  0.00  0.31  0.01  0.00
  WS02006247WS02006245    1.00   0.00  0.00  0.00  0.99  0.00  0.00  0.01  0.00  0.00
  WS02006248WS02006247    1.00   0.00  0.00  0.00  0.99  0.00  0.00  0.01  0.19  0.00
  WS02006249WS02006248    1.00   0.00  0.00  0.00  0.52  0.00  0.48  0.00  0.00  0.00
  WS02006251WS02006249    1.00   0.00  0.00  0.00  1.00  0.00  0.00  0.00  0.48  0.00
  WS02006252WS02006251    1.00   0.00  0.52  0.00  0.30  0.00  0.19  0.00  0.11  0.00
  WS02006256WS02006235    1.00   0.00  0.00  0.00  0.98  0.02  0.00  0.00  0.00  0.00
  WSF200WS02003060        1.00   0.00  0.05  0.00  0.28  0.67  0.00  0.00  0.50  0.00
  YS02001580YS02001583    1.00   0.14  0.49  0.00  0.37  0.00  0.00  0.00  0.58  0.00
  YS02001583YS02001586    1.00   0.36  0.22  0.00  0.42  0.00  0.00  0.00  0.59  0.00
  YS02001586YS02001590    1.00   0.13  0.00  0.00  0.53  0.03  0.00  0.31  0.28  0.00
  YS02001590YS02001593    1.00   0.13  0.00  0.00  0.28  0.00  0.59  0.00  0.00  0.00
  YS02001593YS02001596    1.00   0.13  0.00  0.00  0.29  0.00  0.00  0.57  0.01  0.00
  YS02001596YS02001600    1.00   0.13  0.00  0.00  0.33  0.01  0.00  0.54  0.02  0.00
  YS02001600YS02001601    1.00   0.13  0.00  0.00  0.87  0.00  0.00  0.00  0.51  0.00
  YS02001601YS02001602    1.00   0.13  0.00  0.00  0.87  0.00  0.00  0.00  0.00  0.00
  YS02001602YS02001605    1.00   0.13  0.00  0.00  0.87  0.00  0.00  0.00  0.00  0.00
  YS02001605YS02001607    1.00   0.13  0.00  0.00  0.87  0.00  0.00  0.00  0.00  0.00
  YS02001607YS02001610    1.00   0.13  0.00  0.00  0.87  0.00  0.00  0.00  0.00  0.00
  YS02001610YS02001613    1.00   0.13  0.00  0.00  0.87  0.00  0.00  0.00  0.00  0.00
  YS02001613YS02001616    1.00   0.13  0.00  0.00  0.87  0.00  0.00  0.00  0.00  0.00
  YS02001616YS02001619    1.00   0.13  0.00  0.00  0.87  0.00  0.00  0.00  0.00  0.00
  YS02001619YS02001622    1.00   0.13  0.00  0.00  0.87  0.00  0.00  0.00  0.23  0.00
  YS02001622YS02001625    1.00   0.13  0.00  0.00  0.87  0.00  0.00  0.00  0.00  0.00
  YS02001625YS02001629    1.00   0.13  0.01  0.00  0.33  0.00  0.54  0.00  0.00  0.00
  YS02001629YS02163301    1.00   0.13  0.00  0.00  0.87  0.00  0.00  0.00  0.00  0.00
  YS02001633YS02163601    1.00   0.00  0.01  0.00  0.99  0.00  0.00  0.00  0.12  0.00
  YS02001641YS02001644    1.00   0.00  0.01  0.00  0.99  0.00  0.00  0.00  0.00  0.00
  YS02001644YS02001647    1.00   0.00  0.13  0.00  0.87  0.00  0.00  0.00  0.00  0.00
  YS02001647YS02001649    1.00   0.00  0.13  0.00  0.64  0.23  0.00  0.00  0.51  0.00
  YS02001649YS02001757    1.00   0.00  0.00  0.00  0.87  0.12  0.00  0.00  0.57  0.00
  YS02001652YS02001649    1.00   0.00  0.00  0.00  1.00  0.00  0.00  0.00  0.62  0.00
  YS02001655YS02001652    1.00   0.00  0.00  0.00  0.35  0.00  0.00  0.64  0.02  0.00
  YS02001658YS02001655    1.00   0.00  0.13  0.00  0.83  0.04  0.00  0.00  0.54  0.00
  YS02001661YS02001658    1.00   0.13  0.00  0.00  0.68  0.19  0.00  0.00  0.57  0.00
  YS02001664YS02001661    1.00   0.13  0.00  0.00  0.86  0.02  0.00  0.00  0.62  0.00
  YS02001745YS02001748    1.00   0.00  0.00  0.00  0.31  0.00  0.00  0.69  0.03  0.00
  YS02001748YS02001751    1.00   0.00  0.00  0.00  0.98  0.02  0.00  0.00  0.66  0.00
  YS02001751YS02001754    1.00   0.00  0.00  0.00  0.35  0.00  0.00  0.65  0.02  0.00
  YS02001754YS02001757    1.00   0.00  0.00  0.00  1.00  0.00  0.00  0.00  0.64  0.00
  YS02001757CaochengTiaoxuchi    1.00   0.00  0.00  0.00  0.41  0.59  0.00  0.00  0.16  0.00
  YS02001759YS02001757    1.00   0.00  0.00  0.00  0.99  0.01  0.00  0.00  0.60  0.00
  YS02001762YS02001759    1.00   0.00  0.00  0.00  1.00  0.00  0.00  0.00  0.01  0.00
  YS02001765YS02001762    1.00   0.00  0.00  0.00  1.00  0.00  0.00  0.00  0.61  0.00
  YS02001767YS02001765    1.00   0.00  0.00  0.00  1.00  0.00  0.00  0.00  0.00  0.00
  YS02001770YS02001767    1.00   0.00  0.00  0.00  1.00  0.00  0.00  0.00  0.00  0.00
  YS02001774YS02001770    1.00   0.00  0.13  0.00  0.74  0.00  0.13  0.00  0.00  0.00
  YS02001779YS02001774    1.00   0.00  0.00  0.00  1.00  0.00  0.00  0.00  0.63  0.00
  YS02001783YS02001784    1.00   0.00  0.13  0.00  0.87  0.00  0.00  0.00  0.51  0.00
  YS02001784YS02001785    1.00   0.00  0.00  0.00  1.00  0.00  0.00  0.00  0.12  0.00
  YS02001786YS02001788    1.00   0.00  0.00  0.00  0.89  0.11  0.00  0.00  0.00  0.00
  YS02001788YS02001790    1.00   0.00  0.00  0.00  0.25  0.75  0.00  0.00  0.72  0.00
  YS02001790YS02001791    1.00   0.00  0.00  0.00  0.01  0.99  0.00  0.00  0.09  0.00
  YS02001791YS02001793    1.00   0.00  0.00  0.00  0.00  1.00  0.00  0.00  0.03  0.00
  YS02001793JiankangQianchi    1.00   0.00  0.00  0.00  0.36  0.64  0.00  0.00  0.78  0.00
  YS02001882YS02001884    1.00   0.13  0.00  0.00  0.87  0.00  0.00  0.00  0.00  0.00
  YS02001884YS02001887    1.00   0.06  0.05  0.00  0.89  0.00  0.00  0.00  0.00  0.00
  YS02001887YS02001890    1.00   0.00  0.00  0.00  0.97  0.00  0.03  0.00  0.00  0.00
  YS02001890YS02001895    1.00   0.00  0.13  0.00  0.87  0.00  0.00  0.00  0.00  0.00
  YS02001895YS02001898    1.00   0.13  0.00  0.00  0.86  0.00  0.00  0.00  0.00  0.00
  YS02001898YS02001901    1.00   0.13  0.00  0.00  0.87  0.00  0.00  0.00  0.00  0.00
  YS02001901YS02001904    1.00   0.13  0.00  0.00  0.87  0.00  0.00  0.00  0.00  0.00
  YS02001904YS02001907    1.00   0.00  0.13  0.00  0.87  0.00  0.00  0.00  0.00  0.00
  YS02001907YS02006553    1.00   0.00  0.02  0.00  0.98  0.00  0.00  0.00  0.00  0.00
  YS02001910YS02001907    1.00   0.00  0.00  0.00  0.97  0.00  0.00  0.03  0.10  0.00
  YS02001915YS02001910    1.00   0.00  0.00  0.00  0.98  0.02  0.00  0.00  0.10  0.00
  YS02001918YS02001915    1.00   0.00  0.01  0.00  0.98  0.02  0.00  0.00  0.61  0.00
  YS02001920YS02001918    1.00   0.00  0.01  0.00  0.99  0.00  0.00  0.00  0.00  0.00
  YS02001923YS02001920    1.00   0.00  0.00  0.00  1.00  0.00  0.00  0.00  0.75  0.00
  YS02001926YS02001923    1.00   0.00  0.07  0.00  0.25  0.00  0.68  0.00  0.00  0.00
  YS02001929YS02001926    1.00   0.00  0.13  0.00  0.87  0.00  0.00  0.00  0.62  0.00
  YS02006553YS02006556    1.00   0.01  0.00  0.00  0.99  0.00  0.00  0.00  0.03  0.00
  YS02006556YS02006558    1.00   0.00  0.00  0.00  1.00  0.00  0.00  0.00  0.00  0.00
  YS02006558YS02006561    1.00   0.13  0.00  0.00  0.24  0.62  0.00  0.00  0.12  0.00
  YS02006561YS02001783    1.00   0.13  0.00  0.00  0.26  0.61  0.00  0.00  0.59  0.00
  YS02163301YS02001633    1.00   0.00  0.13  0.00  0.87  0.00  0.00  0.00  0.00  0.00
  YS02163601YS02164001    1.00   0.00  0.08  0.00  0.92  0.00  0.00  0.00  0.00  0.00
  YS02164001YS02001641    1.00   0.01  0.08  0.00  0.92  0.00  0.00  0.00  0.05  0.00
  
  
  *************************
  Conduit Surcharge Summary
  *************************
  
  ----------------------------------------------------------------------------
                                                           Hours        Hours 
                         --------- Hours Full --------   Above Full   Capacity
  Conduit                Both Ends  Upstream  Dnstream   Normal Flow   Limited
  ----------------------------------------------------------------------------
  WS02003072WS02003073        0.01      0.01      0.01      2.53         0.01
  WS02004403WS02004404        0.01      0.01      0.01      0.01         0.01
  WS02004404WS02004405        0.01      0.01      0.01      4.14         0.01
  WS02004405WS02004406        0.01      0.01      0.01      1.88         0.01
  WS02006109WS02006110        0.52      0.52      3.47      0.85         0.01
  WS02006110WS02006113        0.01      0.01      3.46      0.01         0.01
  WS02006111WS02006112        0.01      0.01      3.51      0.01         0.01
  WS02006112WS02006115        0.01      0.01      2.20      0.01         0.01
  WS02006228WS02006109        3.40      3.47      3.40      3.72         3.40
  WS02006229WS02006228        3.39      3.42      3.39      3.62         3.37
  WS02006230WS02006229        3.53      3.57      3.53      4.47         3.53
  WS02006231WS02006230        0.57      0.57      2.14      4.19         0.01
  WS02006232WS02006231        1.71      1.71      3.50      1.68         0.01
  WS02006234WS02006232        3.08      3.08      3.50      1.59         1.37
  WS02006235WS02006234        2.24      2.36      2.91      4.07         0.24
  WS02006238WS02006235        3.06      3.06      3.50      0.01         0.15
  WS02006239WS02006238        3.23      3.49      3.24      3.60         2.71
  WS02006240WS02006239        3.31      3.43      3.31      3.61         2.64
  WS02006242WS02006240        3.41      3.41      3.54      3.72         0.04
  WS02006243WS02006242        3.44      3.44      3.51      0.01         0.58
  WS02006245WS02006243        3.42      3.44      3.43      3.27         2.41
  WS02006247WS02006245        3.42      3.46      3.42      3.80         3.09
  WS02006248WS02006247        3.42      3.42      3.44      0.01         0.69
  WS02006249WS02006248        3.41      3.41      3.43      3.80         0.01
  WS02006251WS02006249        3.43      3.44      3.43      3.74         3.03
  WS02006252WS02006251        3.81      3.81      3.81      3.81         0.01
  WS02006256WS02006235        3.66      4.11      6.06      2.11         0.02
  YS02001580YS02001583        2.05      2.05      2.08      0.01         0.01
  YS02001583YS02001586        2.06      2.06      2.14      0.01         0.01
  YS02001586YS02001590        2.15      2.15      2.19      0.01         0.01
  YS02001590YS02001593        2.19      2.19      2.20      2.23         0.01
  YS02001593YS02001596        2.19      2.19      2.25      0.01         0.01
  YS02001596YS02001600        2.27      2.27      2.33      0.01         0.01
  YS02001600YS02001601        2.37      2.37      2.51      0.01         0.01
  YS02001601YS02001602        2.47      2.47      2.53      2.27         0.01
  YS02001602YS02001605        2.45      2.45      2.47      2.97         0.01
  YS02001605YS02001607        2.44      2.45      2.46      2.37         2.34
  YS02001607YS02001610        2.21      2.21      2.22      0.01         0.01
  YS02001610YS02001613        2.21      2.21      2.22      0.01         0.01
  YS02001613YS02001616        2.18      2.18      2.21      0.01         0.01
  YS02001616YS02001619        2.17      2.17      2.18      0.65         0.55
  YS02001619YS02001622        2.17      2.17      2.17      2.10         2.01
  YS02001622YS02001625        2.17      2.17      2.31      0.01         0.01
  YS02001625YS02001629        2.15      2.15      2.31      0.01         0.01
  YS02001629YS02163301        2.33      2.33      2.34      0.01         0.02
  YS02001633YS02163601        2.36      2.36      2.40      0.03         0.02
  YS02001641YS02001644        2.36      2.37      2.36      2.59         2.13
  YS02001644YS02001647        2.24      2.24      2.36      0.02         0.01
  YS02001647YS02001649        2.24      2.24      2.37      0.01         0.01
  YS02001649YS02001757        2.37      2.37      2.44      0.03         0.03
  YS02001652YS02001649        2.23      2.23      2.37      0.01         0.01
  YS02001655YS02001652        2.08      2.08      2.21      0.01         0.01
  YS02001658YS02001655        1.89      1.89      2.08      0.01         0.01
  YS02001661YS02001658        0.17      0.17      1.89      0.01         0.01
  YS02001664YS02001661        0.01      0.01      1.47      0.01         0.01
  YS02001745YS02001748        0.01      0.01      1.86      0.01         0.01
  YS02001748YS02001751        1.90      1.90      2.04      0.01         0.01
  YS02001751YS02001754        2.04      2.04      2.17      0.01         0.01
  YS02001754YS02001757        2.21      2.21      2.44      0.01         0.01
  YS02001757CaochengTiaoxuchi        2.02      2.44      2.45      1.20         0.76
  YS02001759YS02001757        2.37      2.37      2.44      0.17         0.18
  YS02001762YS02001759        2.35      2.35      2.37      0.01         0.03
  YS02001765YS02001762        2.31      2.31      2.35      0.01         0.01
  YS02001767YS02001765        2.28      2.28      2.31      0.01         0.04
  YS02001770YS02001767        2.28      2.28      2.28      1.97         1.86
  YS02001774YS02001770        2.25      2.25      2.33      0.01         0.01
  YS02001779YS02001774        2.15      2.15      2.33      0.01         0.01
  YS02001783YS02001784        1.97      1.99      1.97      2.04         1.97
  YS02001784YS02001785        1.92      1.97      1.92      2.11         1.92
  YS02001786YS02001788        0.01      1.92      0.01      2.08         0.01
  YS02001790YS02001791        0.01      0.01      0.01      1.97         0.01
  YS02001882YS02001884        1.96      1.96      1.97      0.01         0.01
  YS02001884YS02001887        1.98      1.98      1.98      0.01         0.01
  YS02001887YS02001890        1.99      1.99      2.00      1.04         0.01
  YS02001890YS02001895        1.95      1.95      2.00      0.01         0.01
  YS02001895YS02001898        1.95      1.95      1.95      0.01         0.01
  YS02001898YS02001901        1.95      1.95      1.98      0.01         0.01
  YS02001901YS02001904        1.97      1.97      1.98      0.01         0.01
  YS02001904YS02001907        1.97      1.97      2.08      0.01         0.01
  YS02001907YS02006553        2.12      2.12      2.14      0.01         0.01
  YS02001910YS02001907        2.00      2.00      2.07      0.01         0.01
  YS02001915YS02001910        1.96      1.96      2.00      0.01         0.01
  YS02001918YS02001915        1.91      1.91      1.96      0.01         0.01
  YS02001920YS02001918        1.91      1.91      1.92      0.01         0.01
  YS02001923YS02001920        1.89      1.89      1.92      0.01         0.01
  YS02001926YS02001923        1.02      1.02      1.13      0.01         0.01
  YS02001929YS02001926        0.01      0.01      1.13      0.01         0.01
  YS02006553YS02006556        2.04      2.04      2.08      0.01         0.01
  YS02006556YS02006558        2.06      2.06      2.08      0.01         0.01
  YS02006558YS02006561        1.93      2.03      1.93      2.10         1.93
  YS02006561YS02001783        1.89      1.89      1.99      0.01         0.01
  YS02163301YS02001633        2.34      2.34      2.38      0.01         0.01
  YS02163601YS02164001        2.36      2.36      2.40      0.02         0.01
  YS02164001YS02001641        2.36      2.36      2.37      0.19         0.30
  
  
  ***************
  Pumping Summary
  ***************
  
  ---------------------------------------------------------------------------------------------------------
                                                  Min       Avg       Max     Total     Power    % Time Off
                        Percent   Number of      Flow      Flow      Flow    Volume     Usage    Pump Curve
  Pump                 Utilized   Start-Ups       LPS       LPS       LPS  10^6 ltr     Kw-hr    Low   High
  ---------------------------------------------------------------------------------------------------------
  CC-R1                   46.76           2      0.00    683.00    683.00     9.101    170.47    0.0   63.5
  CC-R2                   46.76           2      0.00    683.00    683.00     9.101    170.47    0.0   63.5
  CC-S1                   48.13           3      0.00    200.00    200.00     2.743     15.18    0.0   41.5
  CC-S2                   48.13           3      0.00    200.00    200.00     2.743     15.18    0.0   41.5
  JK-R1                   12.42         157      0.00   1000.00   1000.00     3.540     10.00    0.0    0.0
  JK-R2                   12.42         157      0.00   1000.00   1000.00     3.540     10.00    0.0    0.0
  JK-S                    26.55         182      0.00    299.93    300.00     2.269     50.90    0.0    0.0
  

  Analysis begun on:  Thu Feb 27 17:15:41 2025
  Analysis ended on:  Thu Feb 27 17:15:43 2025
  Total elapsed time: 00:00:02