
  EPA STORM WATER MANAGEMENT MODEL - VERSION 5.2 (Build 5.2.4)
  PYSWMM TOOLKIT API - VERSION v1.0 (2023-11-27)
  ------------------------------------------------------------

  WARNING 04: minimum elevation drop used for Conduit WS02004404WS02004405
  WARNING 03: negative offset ignored for Link YS02001904YS02001907
  
  ****************
  Analysis Options
  ****************
  Flow Units ............... LPS
  Process Models:
    Rainfall/Runoff ........ YES
    RDII ................... NO
    Snowmelt ............... NO
    Groundwater ............ NO
    Flow Routing ........... YES
    Ponding Allowed ........ NO
    Water Quality .......... NO
  Infiltration Method ...... HORTON
  Flow Routing Method ...... DYNWAVE
  Surcharge Method ......... EXTRAN
  Starting Date ............ 08/28/2015 08:00:00
  Ending Date .............. 08/28/2015 16:00:00
  Antecedent Dry Days ...... 8.0
  Report Time Step ......... 00:01:00
  Wet Time Step ............ 00:01:00
  Dry Time Step ............ 00:01:00
  Routing Time Step ........ 30.00 sec
  Variable Time Step ....... YES
  Maximum Trials ........... 8
  Number of Threads ........ 4
  Head Tolerance ........... 0.001500 m
  
  
  **************************        Volume         Depth
  Runoff Quantity Continuity     hectare-m            mm
  **************************     ---------       -------
  Total Precipitation ......         3.195        96.326
  Evaporation Loss .........         0.000         0.000
  Infiltration Loss ........         0.105         3.171
  Surface Runoff ...........         3.058        92.178
  Final Storage ............         0.033         0.999
  Continuity Error (%) .....        -0.022
  
  
  **************************        Volume        Volume
  Flow Routing Continuity        hectare-m      10^6 ltr
  **************************     ---------     ---------
  Dry Weather Inflow .......         0.025         0.248
  Wet Weather Inflow .......         3.057        30.571
  Groundwater Inflow .......         0.000         0.000
  RDII Inflow ..............         0.000         0.000
  External Inflow ..........         0.083         0.825
  External Outflow .........         2.125        21.251
  Flooding Loss ............         1.252        12.517
  Evaporation Loss .........         0.000         0.000
  Exfiltration Loss ........         0.000         0.000
  Initial Stored Volume ....         0.243         2.431
  Final Stored Volume ......         0.047         0.472
  Continuity Error (%) .....        -0.480
  
  
  *************************
  Highest Continuity Errors
  *************************
  Node YS02001884 (5.18%)
  Node WS02006256 (-3.69%)
  Node YS02001583 (-2.93%)
  Node JK-storage (-1.38%)
  
  
  ***************************
  Time-Step Critical Elements
  ***************************
  Link WS02006238WS02006235 (27.17%)
  Link WS02004404WS02004405 (20.90%)
  Link WS02003066WSF200 (12.61%)
  Link YS02001793JiankangQianchi (9.17%)
  Link YS02001791YS02001793 (6.41%)
  
  
  ********************************
  Highest Flow Instability Indexes
  ********************************
  Link WS02006113WS02006111 (38)
  Link WS02006252WS02006251 (32)
  Link WS02004404WS02004405 (28)
  Link WS02004403WS02004404 (24)
  Link WS02006238WS02006235 (23)
  
  
  *********************************
  Most Frequent Nonconverging Nodes
  *********************************
  Node CC-1 (38.74%)
  Node CC-2 (38.74%)
  Node JK-1 (38.74%)
  Node JK-2 (38.74%)
  Node WSC (38.74%)
  
  
  *************************
  Routing Time Step Summary
  *************************
  Minimum Time Step           :     0.00 sec
  Average Time Step           :     2.71 sec
  Maximum Time Step           :     6.43 sec
  % of Time in Steady State   :     0.00
  Average Iterations per Step :     4.73
  % of Steps Not Converging   :    38.74
  Time Step Frequencies       :
     30.000 - 13.228 sec      :     0.00 %
     13.228 -  5.833 sec      :    12.47 %
      5.833 -  2.572 sec      :    28.73 %
      2.572 -  1.134 sec      :    40.18 %
      1.134 -  0.500 sec      :    18.62 %
  
  
  ***************************
  Subcatchment Runoff Summary
  ***************************
  
  ------------------------------------------------------------------------------------------------------------------------------
                            Total      Total      Total      Total     Imperv       Perv      Total       Total     Peak  Runoff
                           Precip      Runon       Evap      Infil     Runoff     Runoff     Runoff      Runoff   Runoff   Coeff
  Subcatchment                 mm         mm         mm         mm         mm         mm         mm    10^6 ltr      LPS
  ------------------------------------------------------------------------------------------------------------------------------
  sub60                     96.33       0.00       0.00       1.88      83.57       9.68      93.25        1.23   871.34   0.968
  sub61                     96.33       0.00       0.00       2.74      78.83      13.64      92.47        1.70  1213.14   0.960
  sub62                     96.33       0.00       0.00       1.26      87.34       6.45      93.79        2.57  1705.27   0.974
  sub63                     96.33       0.00       0.00       5.07      67.43      22.87      90.30        2.05  1391.47   0.937
  sub64                     96.33       0.00       0.00       2.56      80.67      11.89      92.57        2.22  1409.08   0.961
  sub65                     96.33       0.00       0.00       2.21      82.55      10.31      92.86        2.56  1582.97   0.964
  sub66                     96.33       0.00       0.00       6.32      67.31      21.61      88.93        4.15  2168.21   0.923
  sub67                     96.33       0.00       0.00       1.20      87.39       6.51      93.89        1.75  1297.65   0.975
  sub68                     96.33       0.00       0.00       2.27      81.66      11.22      92.88        2.56  1753.10   0.964
  sub69                     96.33       0.00       0.00       2.05      81.77      12.40      94.17        3.49  2105.06   0.978
  sub70                     96.33       0.00       0.00       6.92      63.41      25.84      89.24        2.58  1217.23   0.926
  sub71                     96.33       0.00       0.00       1.29      87.30       6.42      93.71        2.45  1521.70   0.973
  sub72                     96.33       0.00       0.00       1.15      88.18       5.60      93.77        1.29   747.92   0.974
  
  
  ******************
  Node Depth Summary
  ******************
  
  ---------------------------------------------------------------------------------
                                 Average  Maximum  Maximum  Time of Max    Reported
                                   Depth    Depth      HGL   Occurrence   Max Depth
  Node                 Type       Meters   Meters   Meters  days hr:min      Meters
  ---------------------------------------------------------------------------------
  WS02003060           JUNCTION     0.25     0.38     5.32     0  03:16        0.38
  WS02003066           JUNCTION     0.20     0.30     5.85     0  03:15        0.30
  WS02003067           JUNCTION     0.51     0.70     6.02     0  03:15        0.70
  WS02003069           JUNCTION     0.28     0.43     5.01     0  03:17        0.43
  WS02003072           JUNCTION     0.34     0.50     4.87     0  03:17        0.50
  WS02003073           JUNCTION     0.19     0.30     4.36     0  03:18        0.30
  WS02004401           JUNCTION     0.63     0.87     6.87     0  03:12        0.87
  WS02004402           JUNCTION     0.66     0.90     6.86     0  03:14        0.90
  WS02004403           JUNCTION     0.67     0.92     6.85     0  03:14        0.92
  WS02004404           JUNCTION     0.75     1.01     6.86     0  03:14        0.99
  WS02004405           JUNCTION     0.73     0.97     6.82     0  03:13        0.96
  WS02004406           JUNCTION     0.74     0.96     6.79     0  03:13        0.96
  WS02004407           JUNCTION     0.19     0.30     6.61     0  03:13        0.30
  WS02004409           JUNCTION     0.42     0.67     6.44     0  03:14        0.67
  WS02004410           JUNCTION     0.44     0.68     6.40     0  03:14        0.68
  WS02004411           JUNCTION     0.46     0.69     6.37     0  03:14        0.69
  WS02004412           JUNCTION     0.48     0.70     6.34     0  03:15        0.70
  WS02004413           JUNCTION     0.63     0.86     6.33     0  03:15        0.86
  WS02006109           JUNCTION     0.70     1.40     8.02     0  03:00        1.02
  WS02006110           JUNCTION     0.69     1.50     8.09     0  03:00        0.99
  WS02006111           JUNCTION     0.19     0.29     6.99     0  03:07        0.29
  WS02006112           JUNCTION     0.79     1.12     7.00     0  03:26        1.07
  WS02006113           JUNCTION     0.30     0.46     7.35     0  03:07        0.46
  WS02006115           JUNCTION     0.52     0.77     6.91     0  03:13        0.77
  WS02006116           JUNCTION     0.60     0.85     6.89     0  03:13        0.85
  WS02006228           JUNCTION     0.71     1.38     8.03     0  02:52        1.28
  WS02006229           JUNCTION     0.68     1.45     8.14     0  02:52        1.32
  WS02006230           JUNCTION     0.71     1.72     8.46     0  02:52        1.30
  WS02006231           JUNCTION     0.49     2.24     9.36     0  02:00        1.76
  WS02006232           JUNCTION     0.64     2.18     9.22     0  01:48        2.18
  WS02006234           JUNCTION     0.58     1.96     9.12     0  02:13        1.96
  WS02006235           JUNCTION     0.62     2.00     9.16     0  02:17        2.00
  WS02006238           JUNCTION     0.65     2.15     9.29     0  02:31        2.15
  WS02006239           JUNCTION     0.62     2.03     9.24     0  02:31        2.03
  WS02006240           JUNCTION     0.60     2.10     9.39     0  02:39        2.10
  WS02006242           JUNCTION     0.67     1.55     8.82     0  01:47        1.55
  WS02006243           JUNCTION     0.60     1.48     8.90     0  02:13        1.48
  WS02006245           JUNCTION     0.60     1.56     9.04     0  03:05        1.56
  WS02006247           JUNCTION     0.62     1.47     8.97     0  03:05        1.47
  WS02006248           JUNCTION     0.59     1.10     8.69     0  01:37        1.10
  WS02006249           JUNCTION     0.61     1.09     8.69     0  01:34        1.09
  WS02006251           JUNCTION     0.61     1.48     9.15     0  01:47        1.22
  WS02006252           JUNCTION     0.38     1.50     9.74     0  00:00        0.78
  WS02006256           JUNCTION     1.19     2.35     9.28     0  00:00        2.35
  WSF200               JUNCTION     0.18     0.29     5.52     0  03:15        0.29
  YS02001580           JUNCTION     0.19     1.04     9.58     0  01:55        0.78
  YS02001583           JUNCTION     0.22     1.14     9.64     0  01:54        0.83
  YS02001586           JUNCTION     0.35     1.13     9.30     0  01:54        1.13
  YS02001590           JUNCTION     0.47     1.39     9.25     0  01:55        1.39
  YS02001593           JUNCTION     0.40     1.32     9.18     0  01:51        1.32
  YS02001596           JUNCTION     0.54     1.67     9.09     0  01:55        1.67
  YS02001600           JUNCTION     0.64     1.87     9.00     0  01:55        1.87
  YS02001601           JUNCTION     0.83     2.06     8.90     0  01:54        2.06
  YS02001602           JUNCTION     0.72     1.87     8.77     0  01:59        1.87
  YS02001605           JUNCTION     0.67     1.78     8.68     0  02:24        1.78
  YS02001607           JUNCTION     0.62     1.65     8.50     0  02:13        1.65
  YS02001610           JUNCTION     0.66     1.68     8.48     0  02:00        1.68
  YS02001613           JUNCTION     0.62     1.67     8.51     0  02:14        1.67
  YS02001616           JUNCTION     0.55     1.61     8.52     0  02:09        1.61
  YS02001619           JUNCTION     0.53     1.61     8.54     0  02:10        1.61
  YS02001622           JUNCTION     0.52     1.59     8.49     0  02:13        1.58
  YS02001625           JUNCTION     0.75     1.78     8.38     0  02:00        1.78
  YS02001629           JUNCTION     0.66     1.85     8.40     0  02:03        1.85
  YS02001633           JUNCTION     0.73     2.08     8.53     0  02:13        2.08
  YS02001641           JUNCTION     0.68     1.96     8.40     0  02:12        1.95
  YS02001644           JUNCTION     0.67     1.92     8.35     0  02:04        1.92
  YS02001647           JUNCTION     0.44     1.78     8.39     0  02:11        1.77
  YS02001649           JUNCTION     0.50     2.02     8.41     0  02:13        2.02
  YS02001652           JUNCTION     0.37     1.91     8.51     0  02:11        1.90
  YS02001655           JUNCTION     0.28     1.77     8.62     0  02:13        1.77
  YS02001658           JUNCTION     0.21     1.59     8.73     0  02:13        1.59
  YS02001661           JUNCTION     0.21     1.42     8.82     0  02:13        1.42
  YS02001664           JUNCTION     0.10     0.96     8.89     0  02:12        0.94
  YS02001745           JUNCTION     0.11     0.98     8.50     0  02:12        0.98
  YS02001748           JUNCTION     0.18     1.91     8.99     0  02:06        1.38
  YS02001751           JUNCTION     0.23     1.70     8.57     0  02:06        1.55
  YS02001754           JUNCTION     0.31     1.84     8.45     0  02:06        1.79
  YS02001757           JUNCTION     0.50     2.09     8.35     0  02:13        2.09
  YS02001759           JUNCTION     0.44     2.16     8.52     0  02:13        2.16
  YS02001762           JUNCTION     0.43     2.11     8.51     0  02:13        2.11
  YS02001765           JUNCTION     0.41     2.04     8.49     0  02:13        2.04
  YS02001767           JUNCTION     0.40     1.97     8.46     0  02:13        1.97
  YS02001770           JUNCTION     0.42     1.95     8.44     0  02:06        1.95
  YS02001774           JUNCTION     0.48     2.01     8.43     0  02:13        2.01
  YS02001779           JUNCTION     0.30     1.68     8.37     0  02:02        1.68
  YS02001783           JUNCTION     0.38     1.26     7.40     0  02:11        1.24
  YS02001784           JUNCTION     0.38     1.14     7.21     0  02:12        1.12
  YS02001786           JUNCTION     0.31     0.89     6.92     0  02:13        0.88
  YS02001788           JUNCTION     0.23     0.63     6.61     0  02:12        0.62
  YS02001790           JUNCTION     0.27     0.73     6.38     0  02:12        0.72
  YS02001791           JUNCTION     0.16     0.44     5.91     0  02:14        0.44
  YS02001793           JUNCTION     0.09     0.26     5.10     0  02:14        0.26
  YS02001882           JUNCTION     0.47     1.73     8.45     0  02:13        1.73
  YS02001884           JUNCTION     0.55     1.83     8.45     0  02:13        1.83
  YS02001887           JUNCTION     0.63     1.92     8.46     0  02:13        1.92
  YS02001890           JUNCTION     0.65     1.81     8.32     0  02:00        1.81
  YS02001895           JUNCTION     0.44     1.57     8.32     0  02:24        1.57
  YS02001898           JUNCTION     0.44     1.57     8.31     0  02:24        1.57
  YS02001901           JUNCTION     0.55     1.68     8.29     0  02:13        1.68
  YS02001904           JUNCTION     0.53     1.64     8.27     0  02:01        1.64
  YS02001907           JUNCTION     0.83     1.96     8.25     0  02:01        1.96
  YS02001910           JUNCTION     0.65     2.02     8.52     0  02:13        2.02
  YS02001915           JUNCTION     0.49     2.00     8.72     0  02:11        2.00
  YS02001918           JUNCTION     0.31     1.81     8.88     0  02:02        1.76
  YS02001920           JUNCTION     0.39     2.09     9.10     0  02:02        1.86
  YS02001923           JUNCTION     0.25     2.00     9.26     0  02:02        1.65
  YS02001926           JUNCTION     0.26     1.90     9.34     0  02:02        1.49
  YS02001929           JUNCTION     0.17     1.78     9.47     0  02:02        1.25
  YS02006553           JUNCTION     0.83     2.01     8.29     0  02:13        2.01
  YS02006556           JUNCTION     0.81     2.03     8.34     0  02:13        2.03
  YS02006558           JUNCTION     0.85     2.10     8.37     0  02:13        2.10
  YS02006561           JUNCTION     0.24     0.94     7.60     0  02:13        0.92
  YS02163301           JUNCTION     0.68     1.95     8.47     0  02:13        1.95
  YS02163601           JUNCTION     0.75     2.07     8.46     0  02:13        2.07
  YS02164001           JUNCTION     0.68     1.96     8.42     0  02:12        1.95
  CC-1                 OUTFALL      0.00     0.00     0.00     0  00:00        0.00
  CC-2                 OUTFALL      0.00     0.00     0.00     0  00:00        0.00
  JK-1                 OUTFALL      0.00     0.00     0.00     0  00:00        0.00
  JK-2                 OUTFALL      0.00     0.00     0.00     0  00:00        0.00
  WSC                  OUTFALL      0.19     0.30     0.97     0  03:18        0.30
  CC-storage           STORAGE      0.40     1.29     6.79     0  02:52        1.29
  JK-storage           STORAGE      0.14     2.99     3.79     0  00:00        0.68
  
  
  *******************
  Node Inflow Summary
  *******************
  
  -------------------------------------------------------------------------------------------------
                                  Maximum  Maximum                  Lateral       Total        Flow
                                  Lateral    Total  Time of Max      Inflow      Inflow     Balance
                                   Inflow   Inflow   Occurrence      Volume      Volume       Error
  Node                 Type           LPS      LPS  days hr:min    10^6 ltr    10^6 ltr     Percent
  -------------------------------------------------------------------------------------------------
  WS02003060           JUNCTION     16.53   552.60     0  03:16       0.471        5.71       0.036
  WS02003066           JUNCTION      0.00   535.74     0  03:15           0        5.24       0.029
  WS02003067           JUNCTION      0.00   535.64     0  03:15           0        5.25       0.078
  WS02003069           JUNCTION      0.32   552.69     0  03:16     0.00912        5.72       0.069
  WS02003072           JUNCTION      0.00   552.31     0  03:17           0        5.72       0.128
  WS02003073           JUNCTION      1.82   553.97     0  03:17      0.0519        5.76       0.095
  WS02004401           JUNCTION      0.00   541.07     0  03:16           0        5.35       0.192
  WS02004402           JUNCTION      0.00   541.71     0  03:16           0        5.34       0.195
  WS02004403           JUNCTION      0.00   545.64     0  02:38           0        5.32       0.189
  WS02004404           JUNCTION      0.16   562.30     0  02:38     0.00462        5.32       0.122
  WS02004405           JUNCTION      0.04   599.03     0  03:14     0.00109        5.31       0.176
  WS02004406           JUNCTION      0.00   543.85     0  02:38           0         5.3       0.393
  WS02004407           JUNCTION      0.00   538.45     0  03:13           0        5.28       0.020
  WS02004409           JUNCTION      0.00   537.77     0  03:13           0        5.28       0.049
  WS02004410           JUNCTION      0.00   536.94     0  03:14           0        5.28       0.086
  WS02004411           JUNCTION      0.00   536.29     0  03:14           0        5.28       0.107
  WS02004412           JUNCTION      0.00   536.03     0  03:14           0        5.27       0.142
  WS02004413           JUNCTION      0.00   536.01     0  03:15           0        5.26       0.264
  WS02006109           JUNCTION      1.23   560.30     0  02:55      0.0351        5.38       0.070
  WS02006110           JUNCTION      0.00   560.08     0  02:55           0        5.38       0.106
  WS02006111           JUNCTION      0.00   563.46     0  03:07           0        5.37       0.016
  WS02006112           JUNCTION      0.00   543.79     0  03:07           0        5.37       0.373
  WS02006113           JUNCTION      0.00   570.43     0  02:52           0        5.37       0.034
  WS02006115           JUNCTION      0.00   546.02     0  03:13           0        5.35       0.132
  WS02006116           JUNCTION      0.00   539.93     0  03:13           0        5.34      -0.022
  WS02006228           JUNCTION      0.00   558.46     0  02:55           0        5.35       0.009
  WS02006229           JUNCTION      0.00   558.13     0  02:55           0        5.36       0.123
  WS02006230           JUNCTION     10.28   607.98     0  01:48       0.293        5.36       0.006
  WS02006231           JUNCTION      0.00   582.12     0  03:19           0        5.06      -0.152
  WS02006232           JUNCTION      0.00   581.17     0  03:19           0        5.07       0.372
  WS02006234           JUNCTION      0.00   606.32     0  01:47           0        5.05      -0.432
  WS02006235           JUNCTION      0.00   605.05     0  01:47           0        5.15       0.357
  WS02006238           JUNCTION      0.00   431.83     0  01:35           0        3.96      -0.179
  WS02006239           JUNCTION      0.00   432.06     0  01:35           0         3.9      -0.143
  WS02006240           JUNCTION      0.00   429.19     0  01:35           0        3.85      -0.125
  WS02006242           JUNCTION      0.00   428.27     0  01:35           0        3.83      -0.027
  WS02006243           JUNCTION      0.00   428.72     0  01:35           0        3.82      -0.130
  WS02006245           JUNCTION      0.00   428.74     0  01:35           0        3.84       0.491
  WS02006247           JUNCTION      0.00   429.80     0  01:35           0        3.84       0.014
  WS02006248           JUNCTION      0.00   428.00     0  01:35           0        3.86       0.142
  WS02006249           JUNCTION      0.00   465.02     0  01:27           0        4.12       0.347
  WS02006251           JUNCTION      0.08   407.04     0  01:36     0.00219        4.12      -0.019
  WS02006252           JUNCTION      0.00   400.00     0  00:00           0        4.11      -0.052
  WS02006256           JUNCTION      0.00   344.22     0  02:01           0        1.87      -3.555
  WSF200               JUNCTION      0.00   535.81     0  03:15           0        5.24       0.007
  YS02001580           JUNCTION      0.00    69.01     0  01:54           0     0.00398      -1.086
  YS02001583           JUNCTION      0.00   108.21     0  01:54           0      0.0157      -2.844
  YS02001586           JUNCTION   1217.23  1217.23     0  02:15        2.58        2.59       0.039
  YS02001590           JUNCTION      0.00   318.54     0  02:36           0        1.66      -0.030
  YS02001593           JUNCTION      0.00   318.40     0  02:24           0        1.66       0.009
  YS02001596           JUNCTION      0.00   318.08     0  02:20           0        1.66       0.000
  YS02001600           JUNCTION      0.00   318.01     0  02:27           0        1.66       0.019
  YS02001601           JUNCTION   2105.06  2422.43     0  02:14        3.49        5.15       0.018
  YS02001602           JUNCTION      0.00   501.71     0  02:48           0        2.74       0.017
  YS02001605           JUNCTION      0.00   501.74     0  02:48           0         2.6       0.022
  YS02001607           JUNCTION      0.00   501.68     0  02:48           0        2.59       0.079
  YS02001610           JUNCTION      0.00   952.55     0  02:20           0        3.21       0.080
  YS02001613           JUNCTION      0.00   615.73     0  02:19           0        2.56       0.060
  YS02001616           JUNCTION      0.00   615.96     0  02:20           0        2.56       0.021
  YS02001619           JUNCTION   2168.21  2168.21     0  02:14        4.15        6.09       0.002
  YS02001622           JUNCTION      0.00  1053.91     0  02:16           0         5.3       0.002
  YS02001625           JUNCTION      0.00  1505.18     0  02:19           0         5.7       0.157
  YS02001629           JUNCTION      0.00   937.11     0  02:39           0        4.46       0.025
  YS02001633           JUNCTION   1583.17  1583.17     0  02:14        2.56        6.46       0.056
  YS02001641           JUNCTION      0.00  1357.26     0  02:00           0        5.91       0.051
  YS02001644           JUNCTION   1409.12  2328.91     0  02:13        2.22        8.15       0.043
  YS02001647           JUNCTION      0.00  1743.69     0  02:00           0        7.04       0.006
  YS02001649           JUNCTION      0.00  2001.31     0  02:01           0        9.08       0.006
  YS02001652           JUNCTION      0.00  1401.46     0  02:13           0        2.05      -0.049
  YS02001655           JUNCTION      0.15  1401.31     0  02:13     0.00439        2.05       0.039
  YS02001658           JUNCTION      0.00  1401.23     0  02:13           0        2.05      -0.017
  YS02001661           JUNCTION      0.00  1401.22     0  02:13           0        2.05       0.015
  YS02001664           JUNCTION   1391.47  1391.47     0  02:13        2.05        2.05      -0.007
  YS02001745           JUNCTION    871.35   871.35     0  02:13        1.23        1.23       0.081
  YS02001748           JUNCTION      0.04   884.93     0  02:13     0.00128        1.23      -0.102
  YS02001751           JUNCTION      0.01   884.17     0  02:13    0.000313        1.23       0.027
  YS02001754           JUNCTION      0.26   884.54     0  02:13     0.00741        1.24      -0.098
  YS02001757           JUNCTION      0.00  3627.62     0  02:13           0          14       0.039
  YS02001759           JUNCTION   1213.18  1544.41     0  02:13         1.7         3.7      -0.003
  YS02001762           JUNCTION      0.00   826.46     0  02:21           0        2.01       0.002
  YS02001765           JUNCTION      0.00   826.92     0  02:21           0        2.01       0.009
  YS02001767           JUNCTION      0.54   827.24     0  02:21      0.0152        2.01       0.014
  YS02001770           JUNCTION   1705.43  1705.43     0  02:13        2.57        2.62      -0.000
  YS02001774           JUNCTION      0.00   851.53     0  02:16           0        0.54       0.248
  YS02001779           JUNCTION      0.01   851.32     0  02:15    0.000142       0.497      -0.044
  YS02001783           JUNCTION      0.00  1178.59     0  02:13           0        5.07       0.006
  YS02001784           JUNCTION      1.06  1179.86     0  02:13      0.0302         5.1       0.010
  YS02001786           JUNCTION      0.06  1179.29     0  02:13      0.0016         5.1       0.015
  YS02001788           JUNCTION      0.07  1181.01     0  02:13     0.00202         5.1       0.005
  YS02001790           JUNCTION      0.15  1189.28     0  02:12     0.00442         5.1       0.011
  YS02001791           JUNCTION      0.00  1309.08     0  02:12           0         5.1      -0.017
  YS02001793           JUNCTION      0.00  1271.11     0  02:12           0         5.1      -0.036
  YS02001882           JUNCTION      0.00    26.93     0  01:58           0      0.0131       5.258
  YS02001884           JUNCTION      0.00    36.68     0  01:57           0      0.0489       5.458
  YS02001887           JUNCTION   1298.10  1302.16     0  02:13        1.76        1.79       0.249
  YS02001890           JUNCTION      0.00  1303.99     0  02:13           0        1.75       0.296
  YS02001895           JUNCTION      0.00   517.86     0  02:16           0        1.42       0.124
  YS02001898           JUNCTION      0.00   518.14     0  02:14           0        1.42       0.015
  YS02001901           JUNCTION      0.00   518.29     0  02:16           0        1.42       0.235
  YS02001904           JUNCTION      0.00   518.00     0  02:17           0        1.43       0.204
  YS02001907           JUNCTION      0.00  3097.57     0  02:13           0        5.35       0.342
  YS02001910           JUNCTION      0.00  1993.02     0  02:14           0        3.77       0.194
  YS02001915           JUNCTION   1521.72  2274.06     0  02:13        2.45        3.85       0.043
  YS02001918           JUNCTION      0.00   753.81     0  02:13           0        1.41       0.015
  YS02001920           JUNCTION      2.87   752.79     0  02:13      0.0818         1.4       0.079
  YS02001923           JUNCTION      0.04   748.00     0  02:14     0.00107        1.31      -0.012
  YS02001926           JUNCTION      0.05   747.90     0  02:14     0.00149        1.29       0.024
  YS02001929           JUNCTION    747.92   747.92     0  02:14        1.29        1.29      -0.041
  YS02006553           JUNCTION      0.00   801.13     0  02:33           0        2.86       0.419
  YS02006556           JUNCTION      0.00   802.02     0  02:33           0        2.87       0.290
  YS02006558           JUNCTION   1753.98  1753.98     0  02:13        2.58        5.26       0.066
  YS02006561           JUNCTION      0.00  1177.21     0  02:13           0        5.07      -0.001
  YS02163301           JUNCTION      0.00   936.58     0  02:39           0        4.46       0.039
  YS02163601           JUNCTION      0.11  1357.35     0  02:00     0.00313         5.9       0.088
  YS02164001           JUNCTION      0.00  1357.47     0  02:00           0         5.9       0.045
  CC-1                 OUTFALL       0.00   683.00     0  00:00           0        6.02       0.000
  CC-2                 OUTFALL       0.00   683.00     0  00:00           0        6.02       0.000
  JK-1                 OUTFALL       0.00  1000.00     0  00:00           0        1.73       0.000
  JK-2                 OUTFALL       0.00  1000.00     0  00:00           0        1.73       0.000
  WSC                  OUTFALL       0.00   553.77     0  03:18           0        5.76       0.000
  CC-storage           STORAGE       0.00  3630.36     0  02:13           0        16.2      -0.320
  JK-storage           STORAGE       0.00  1402.46     0  02:22           0        5.26      -1.357
  
  
  **********************
  Node Surcharge Summary
  **********************
  
  Surcharging occurs when water rises above the top of the highest conduit.
  ---------------------------------------------------------------------
                                               Max. Height   Min. Depth
                                   Hours       Above Crown    Below Rim
  Node                 Type      Surcharged         Meters       Meters
  ---------------------------------------------------------------------
  WS02004404           JUNCTION        0.01          0.009        2.771
  WS02006109           JUNCTION        2.36          0.577        1.243
  WS02006110           JUNCTION        0.53          0.593        1.257
  WS02006112           JUNCTION        1.61          0.122        1.558
  WS02006228           JUNCTION        2.34          0.554        1.646
  WS02006229           JUNCTION        2.37          0.650        1.800
  WS02006230           JUNCTION        0.56          0.638        0.932
  WS02006231           JUNCTION        1.24          1.530        0.000
  WS02006232           JUNCTION        2.47          1.480        0.000
  WS02006234           JUNCTION        1.76          1.240        0.000
  WS02006235           JUNCTION        2.07          1.290        0.000
  WS02006238           JUNCTION        2.30          1.430        0.000
  WS02006239           JUNCTION        2.29          1.290        0.000
  WS02006240           JUNCTION        2.35          1.390        0.000
  WS02006242           JUNCTION        2.45          0.820        0.000
  WS02006243           JUNCTION        2.35          0.770        0.000
  WS02006245           JUNCTION        2.34          0.850        0.000
  WS02006247           JUNCTION        2.37          0.760        0.000
  WS02006248           JUNCTION        2.33          0.380        0.000
  WS02006249           JUNCTION        2.35          0.390        0.000
  WS02006251           JUNCTION        1.68          0.453        0.727
  WS02006252           JUNCTION        2.85          1.100        0.000
  WS02006256           JUNCTION        5.82          2.050        0.000
  YS02001580           JUNCTION        0.88          0.441        0.009
  YS02001583           JUNCTION        0.88          0.500        0.000
  YS02001586           JUNCTION        1.00          0.510        0.000
  YS02001590           JUNCTION        1.10          0.738        0.012
  YS02001593           JUNCTION        1.09          0.702        0.138
  YS02001596           JUNCTION        1.24          0.941        0.129
  YS02001600           JUNCTION        1.39          1.188        0.002
  YS02001601           JUNCTION        1.73          1.440        0.000
  YS02001602           JUNCTION        1.62          1.270        0.000
  YS02001605           JUNCTION        1.57          1.180        0.000
  YS02001607           JUNCTION        1.02          0.652        0.028
  YS02001610           JUNCTION        1.06          0.680        0.000
  YS02001613           JUNCTION        1.01          0.670        0.030
  YS02001616           JUNCTION        0.96          0.610        0.000
  YS02001619           JUNCTION        0.95          0.610        0.000
  YS02001622           JUNCTION        0.94          0.585        0.035
  YS02001625           JUNCTION        1.18          0.780        0.000
  YS02001629           JUNCTION        0.82          0.470        0.000
  YS02001633           JUNCTION        1.18          1.060        0.000
  YS02001641           JUNCTION        1.04          0.960        0.140
  YS02001644           JUNCTION        0.98          0.920        0.000
  YS02001647           JUNCTION        0.67          0.775        0.125
  YS02001649           JUNCTION        0.76          1.023        0.027
  YS02001652           JUNCTION        0.56          0.879        0.251
  YS02001655           JUNCTION        0.42          0.769        0.431
  YS02001658           JUNCTION        0.31          0.588        0.712
  YS02001661           JUNCTION        0.14          0.349        1.041
  YS02001748           JUNCTION        0.21          0.831        0.359
  YS02001751           JUNCTION        0.33          0.696        0.504
  YS02001754           JUNCTION        0.42          0.792        0.358
  YS02001757           JUNCTION        0.78          1.092        0.118
  YS02001759           JUNCTION        0.68          1.159        0.051
  YS02001762           JUNCTION        0.64          1.106        0.044
  YS02001765           JUNCTION        0.60          1.040        0.060
  YS02001767           JUNCTION        0.57          0.972        0.058
  YS02001770           JUNCTION        0.55          0.920        0.000
  YS02001774           JUNCTION        0.63          1.012        0.038
  YS02001779           JUNCTION        0.44          0.680        0.000
  YS02001783           JUNCTION        0.75          0.463        1.137
  YS02001784           JUNCTION        0.72          0.342        1.148
  YS02001786           JUNCTION        0.59          0.089        1.341
  YS02001882           JUNCTION        0.68          0.731        0.099
  YS02001884           JUNCTION        0.69          0.768        0.102
  YS02001887           JUNCTION        0.74          0.871        0.079
  YS02001890           JUNCTION        0.76          0.760        0.000
  YS02001895           JUNCTION        0.67          0.571        0.179
  YS02001898           JUNCTION        0.66          0.544        0.196
  YS02001901           JUNCTION        0.72          0.682        0.188
  YS02001904           JUNCTION        0.71          0.642        0.208
  YS02001907           JUNCTION        1.05          0.950        0.000
  YS02001910           JUNCTION        0.79          1.018        0.082
  YS02001915           JUNCTION        0.68          1.000        0.000
  YS02001918           JUNCTION        0.58          0.810        0.000
  YS02001920           JUNCTION        0.59          1.093        0.047
  YS02001923           JUNCTION        0.24          0.786        0.034
  YS02001926           JUNCTION        0.27          0.899        0.001
  YS02001929           JUNCTION        0.13          0.780        0.000
  YS02006553           JUNCTION        1.08          1.006        0.184
  YS02006556           JUNCTION        0.92          0.993        0.357
  YS02006558           JUNCTION        0.89          1.003        0.397
  YS02006561           JUNCTION        0.54          0.140        1.010
  YS02163301           JUNCTION        1.16          0.952        0.078
  YS02163601           JUNCTION        1.22          1.065        0.015
  YS02164001           JUNCTION        1.06          0.959        0.141
  
  
  *********************
  Node Flooding Summary
  *********************
  
  Flooding refers to all water that overflows a node, whether it ponds or not.
  --------------------------------------------------------------------------
                                                             Total   Maximum
                                 Maximum   Time of Max       Flood    Ponded
                        Hours       Rate    Occurrence      Volume     Depth
  Node                 Flooded       LPS   days hr:min    10^6 ltr    Meters
  --------------------------------------------------------------------------
  WS02006231              0.01     79.50      0  02:00       0.000     0.000
  WS02006232              0.01     19.89      0  01:48       0.000     0.000
  WS02006234              0.01    154.28      0  02:33       0.000     0.000
  WS02006235              0.01     54.08      0  02:59       0.000     0.000
  WS02006238              0.01     27.23      0  02:42       0.000     0.000
  WS02006239              0.01      8.88      0  02:39       0.000     0.000
  WS02006240              0.01      8.14      0  02:39       0.000     0.000
  WS02006242              0.03     32.06      0  02:31       0.001     0.000
  WS02006243              0.01      6.87      0  02:39       0.000     0.000
  WS02006245              0.01      3.30      0  03:05       0.000     0.000
  WS02006247              0.01      3.34      0  03:05       0.000     0.000
  WS02006248              0.25     31.66      0  02:35       0.013     0.000
  WS02006249              1.46     94.05      0  01:34       0.245     0.000
  WS02006252              0.01    245.63      0  00:00       0.000     0.000
  WS02006256              1.73    317.50      0  02:01       0.695     0.000
  YS02001583              0.01     41.20      0  01:54       0.000     0.000
  YS02001586              0.73    899.79      0  02:15       0.915     0.000
  YS02001601              0.91   2024.39      0  02:14       2.407     0.000
  YS02001602              0.69     61.98      0  02:12       0.143     0.000
  YS02001605              0.01      0.26      0  02:33       0.000     0.000
  YS02001610              0.62    951.90      0  02:20       1.267     0.000
  YS02001616              0.11      2.47      0  02:12       0.000     0.000
  YS02001619              0.16    505.07      0  02:14       0.169     0.000
  YS02001625              0.54   1505.06      0  02:19       1.788     0.000
  YS02001629              0.27    396.83      0  02:14       0.157     0.000
  YS02001633              0.01      1.62      0  02:13       0.000     0.000
  YS02001644              0.29   2328.71      0  02:13       1.110     0.000
  YS02001770              0.10    540.15      0  02:13       0.101     0.000
  YS02001779              0.26    851.13      0  02:15       0.479     0.000
  YS02001890              0.29    788.16      0  02:13       0.325     0.000
  YS02001907              0.52   3096.44      0  02:13       2.647     0.000
  YS02001915              0.08    281.56      0  02:13       0.051     0.000
  YS02001918              0.01     65.22      0  02:02       0.000     0.000
  YS02001929              0.01    140.94      0  02:02       0.000     0.000
  
  
  **********************
  Storage Volume Summary
  **********************
  
  ------------------------------------------------------------------------------------------------
                         Average    Avg   Evap  Exfil     Maximum    Max    Time of Max    Maximum
                          Volume   Pcnt   Pcnt   Pcnt      Volume   Pcnt     Occurrence    Outflow
  Storage Unit           1000 m³   Full   Loss   Loss     1000 m³   Full    days hr:min        LPS
  ------------------------------------------------------------------------------------------------
  CC-storage               1.108   17.3    0.0    0.0       3.593   56.1       0  02:52    1783.53
  JK-storage               0.007    2.4    0.0    0.0       0.150   51.6       0  00:00    2300.00
  
  
  ***********************
  Outfall Loading Summary
  ***********************
  
  -----------------------------------------------------------
                         Flow       Avg       Max       Total
                         Freq      Flow      Flow      Volume
  Outfall Node           Pcnt       LPS       LPS    10^6 ltr
  -----------------------------------------------------------
  CC-1                  52.93    683.00    683.00       6.016
  CC-2                  52.93    683.00    683.00       6.016
  JK-1                  10.97    999.85   1000.00       1.731
  JK-2                  10.97    999.85   1000.00       1.731
  WSC                   99.94    293.08    553.77       5.756
  -----------------------------------------------------------
  System                45.55   3658.78   3899.73      21.250
  
  
  ********************
  Link Flow Summary
  ********************
  
  -----------------------------------------------------------------------------
                                 Maximum  Time of Max   Maximum    Max/    Max/
                                  |Flow|   Occurrence   |Veloc|    Full    Full
  Link                 Type          LPS  days hr:min     m/sec    Flow   Depth
  -----------------------------------------------------------------------------
  1                    CONDUIT    553.77     0  03:18      2.82    0.19    0.30
  WS02003060WS02003069 CONDUIT    552.37     0  03:16      1.64    0.22    0.34
  WS02003066WSF200     CONDUIT    535.81     0  03:15      2.85    0.09    0.22
  WS02003067WS02003066 CONDUIT    535.74     0  03:15      1.21    0.17    0.42
  WS02003069WS02003072 CONDUIT    552.31     0  03:17      1.37    0.27    0.39
  WS02003072WS02003073 CONDUIT    552.15     0  03:17      1.43    1.19    0.37
  WS02004401WS02004402 CONDUIT    541.71     0  03:16      1.22    0.65    0.89
  WS02004402WS02004403 CONDUIT    545.64     0  02:38      1.24    0.78    0.91
  WS02004403WS02004404 CONDUIT    562.14     0  02:38      1.24    0.41    0.96
  WS02004404WS02004405 CONDUIT    598.99     0  03:14      1.45    5.87    0.98
  WS02004405WS02004406 CONDUIT    543.85     0  02:38      1.46    1.07    0.96
  WS02004406WS02004407 CONDUIT    538.45     0  03:13      1.04    0.24    0.63
  WS02004407WS02004409 CONDUIT    537.77     0  03:13      1.62    0.19    0.48
  WS02004409WS02004410 CONDUIT    536.94     0  03:14      1.06    0.69    0.67
  WS02004410WS02004411 CONDUIT    536.29     0  03:14      1.12    0.73    0.69
  WS02004411WS02004412 CONDUIT    536.03     0  03:14      1.22    0.76    0.69
  WS02004412WS02004413 CONDUIT    536.01     0  03:15      1.22    0.36    0.78
  WS02004413WS02003067 CONDUIT    535.64     0  03:15      1.11    0.23    0.59
  WS02006109WS02006110 CONDUIT    560.08     0  02:55      1.11    1.08    1.00
  WS02006110WS02006113 CONDUIT    570.43     0  02:52      1.37    0.52    0.79
  WS02006111WS02006112 CONDUIT    543.79     0  03:07      1.95    0.26    0.67
  WS02006112WS02006115 CONDUIT    546.02     0  03:13      0.90    0.32    0.88
  WS02006113WS02006111 CONDUIT    563.46     0  03:07      2.47    0.68    0.46
  WS02006115WS02006116 CONDUIT    539.93     0  03:13      1.29    0.69    0.78
  WS02006116WS02004401 CONDUIT    541.07     0  03:16      1.21    0.75    0.86
  WS02006228WS02006109 CONDUIT    559.07     0  02:55      1.11    2.44    1.00
  WS02006229WS02006228 CONDUIT    558.46     0  02:55      1.12    1.85    1.00
  WS02006230WS02006229 CONDUIT    558.13     0  02:55      1.45   12.42    1.00
  WS02006231WS02006230 CONDUIT    597.70     0  01:48      1.61    9.07    1.00
  WS02006232WS02006231 CONDUIT    582.12     0  03:19      1.54    1.22    1.00
  WS02006234WS02006232 CONDUIT    581.17     0  03:19      1.51    1.18    1.00
  WS02006235WS02006234 CONDUIT    606.32     0  01:47      1.58    6.40    1.00
  WS02006238WS02006235 CONDUIT    432.11     0  01:35      1.45    0.96    1.00
  WS02006239WS02006238 CONDUIT    431.83     0  01:35      1.13    1.38    1.00
  WS02006240WS02006239 CONDUIT    432.06     0  01:35      1.27    1.36    1.00
  WS02006242WS02006240 CONDUIT    429.19     0  01:35      1.16    1.70    1.00
  WS02006243WS02006242 CONDUIT    428.27     0  01:35      1.42    0.92    1.00
  WS02006245WS02006243 CONDUIT    428.72     0  01:35      1.44    1.27    1.00
  WS02006247WS02006245 CONDUIT    428.74     0  01:35      1.43    3.40    1.00
  WS02006248WS02006247 CONDUIT    429.80     0  01:35      1.43    0.94    1.00
  WS02006249WS02006248 CONDUIT    428.00     0  01:35      1.39    2.34    1.00
  WS02006251WS02006249 CONDUIT    465.02     0  01:27      1.99    1.34    1.00
  WS02006252WS02006251 CONDUIT    406.96     0  01:36     24.91    1.49    1.00
  WS02006256WS02006235 CONDUIT    288.91     0  00:00      4.23    3.06    1.00
  WSF200WS02003060     CONDUIT    536.07     0  03:16      2.06    0.12    0.28
  YS02001580YS02001583 CONDUIT     69.01     0  01:54      0.49    0.27    1.00
  YS02001583YS02001586 CONDUIT    108.21     0  01:54      0.45    0.16    1.00
  YS02001586YS02001590 CONDUIT    318.54     0  02:36      1.26    0.56    1.00
  YS02001590YS02001593 CONDUIT    318.40     0  02:24      1.13    2.00    1.00
  YS02001593YS02001596 CONDUIT    318.08     0  02:20      1.79    0.50    1.00
  YS02001596YS02001600 CONDUIT    318.01     0  02:27      1.29    0.62    1.00
  YS02001600YS02001601 CONDUIT    318.38     0  02:32      1.13    0.55    1.00
  YS02001601YS02001602 CONDUIT    501.71     0  02:48      1.77    1.81    1.00
  YS02001602YS02001605 CONDUIT    501.74     0  02:48      1.77   10.62    1.00
  YS02001605YS02001607 CONDUIT    501.68     0  02:48      1.77    2.75    1.00
  YS02001607YS02001610 CONDUIT    502.27     0  02:48      0.64    0.48    1.00
  YS02001610YS02001613 CONDUIT    616.42     0  02:20      0.78    0.71    1.00
  YS02001613YS02001616 CONDUIT    615.73     0  02:19      0.78    0.53    1.00
  YS02001616YS02001619 CONDUIT    615.96     0  02:20      0.78    1.07    1.00
  YS02001619YS02001622 CONDUIT   1053.91     0  02:16      1.34    1.55    1.00
  YS02001622YS02001625 CONDUIT   1053.63     0  02:15      1.34    0.56    1.00
  YS02001625YS02001629 CONDUIT    937.11     0  02:39      1.19    0.45    1.00
  YS02001629YS02163301 CONDUIT    936.58     0  02:39      1.19    1.15    1.00
  YS02001633YS02163601 CONDUIT   1357.24     0  02:00      1.73    1.42    1.00
  YS02001641YS02001644 CONDUIT   1357.22     0  02:00      1.73    4.39    1.00
  YS02001644YS02001647 CONDUIT   1743.69     0  02:00      2.22    1.02    1.00
  YS02001647YS02001649 CONDUIT   1751.42     0  02:01      2.28    0.92    1.00
  YS02001649YS02001757 CONDUIT   1999.91     0  02:01      2.55    1.21    1.00
  YS02001652YS02001649 CONDUIT   1401.56     0  02:13      1.78    0.69    1.00
  YS02001655YS02001652 CONDUIT   1401.46     0  02:13      1.78    0.68    1.00
  YS02001658YS02001655 CONDUIT   1401.16     0  02:13      1.80    0.59    1.00
  YS02001661YS02001658 CONDUIT   1401.23     0  02:13      2.25    0.55    1.00
  YS02001664YS02001661 CONDUIT   1401.22     0  02:13      2.24    0.44    0.98
  YS02001745YS02001748 CONDUIT    884.89     0  02:13      2.10    0.34    0.99
  YS02001748YS02001751 CONDUIT    884.16     0  02:13      1.63    0.45    1.00
  YS02001751YS02001754 CONDUIT    884.28     0  02:13      1.31    0.43    1.00
  YS02001754YS02001757 CONDUIT    884.43     0  02:13      1.13    0.36    1.00
  YS02001757CaochengTiaoxuchi CONDUIT   3630.36     0  02:13      6.43    1.57    1.00
  YS02001759YS02001757 CONDUIT   1545.74     0  02:13      1.97    1.10    1.00
  YS02001762YS02001759 CONDUIT    826.79     0  02:21      1.05    0.95    1.00
  YS02001765YS02001762 CONDUIT    826.46     0  02:21      1.05    0.77    1.00
  YS02001767YS02001765 CONDUIT    826.92     0  02:21      1.05    1.04    1.00
  YS02001770YS02001767 CONDUIT    826.71     0  02:21      1.05    3.27    1.00
  YS02001774YS02001770 CONDUIT    851.53     0  02:16      1.08    0.54    1.00
  YS02001779YS02001774 CONDUIT    851.31     0  02:15      1.08    0.43    1.00
  YS02001783YS02001784 CONDUIT   1178.80     0  02:13      2.35    1.62    1.00
  YS02001784YS02001785 CONDUIT   1179.24     0  02:13      2.35    2.74    1.00
  YS02001786YS02001788 CONDUIT   1180.94     0  02:13      2.51    2.28    0.89
  YS02001788YS02001790 CONDUIT   1189.12     0  02:12      2.73    0.88    0.85
  YS02001790YS02001791 CONDUIT   1309.08     0  02:12      3.43    1.42    0.71
  YS02001791YS02001793 CONDUIT   1271.11     0  02:12      6.80    0.55    0.43
  YS02001793JiankangQianchi CONDUIT   1402.46     0  02:22     20.86    0.11    0.50
  YS02001882YS02001884 CONDUIT     26.93     0  01:58      0.16    0.03    1.00
  YS02001884YS02001887 CONDUIT     36.68     0  01:57      0.12    0.05    1.00
  YS02001887YS02001890 CONDUIT   1303.99     0  02:13      1.66    2.23    1.00
  YS02001890YS02001895 CONDUIT    517.86     0  02:16      0.66    0.24    1.00
  YS02001895YS02001898 CONDUIT    518.14     0  02:14      0.66    0.90    1.00
  YS02001898YS02001901 CONDUIT    518.29     0  02:16      0.66    0.33    1.00
  YS02001901YS02001904 CONDUIT    518.00     0  02:17      0.66    0.80    1.00
  YS02001904YS02001907 CONDUIT    518.47     0  02:16      0.66    0.18    1.00
  YS02001907YS02006553 CONDUIT    801.13     0  02:33      0.89    0.94    1.00
  YS02001910YS02001907 CONDUIT   1992.89     0  02:14      2.54    1.12    1.00
  YS02001915YS02001910 CONDUIT   1993.02     0  02:14      2.54    0.99    1.00
  YS02001918YS02001915 CONDUIT    754.74     0  02:13      0.96    0.42    1.00
  YS02001920YS02001918 CONDUIT    753.81     0  02:13      0.96    0.73    1.00
  YS02001923YS02001920 CONDUIT    749.92     0  02:13      0.95    0.34    1.00
  YS02001926YS02001923 CONDUIT    747.96     0  02:14      0.95    1.07    1.00
  YS02001929YS02001926 CONDUIT    747.85     0  02:14      1.07    0.36    1.00
  YS02006553YS02006556 CONDUIT    802.02     0  02:33      1.02    0.69    1.00
  YS02006556YS02006558 CONDUIT    801.93     0  02:34      1.02    0.63    1.00
  YS02006558YS02006561 CONDUIT   1177.21     0  02:13      4.16    2.60    1.00
  YS02006561YS02001783 CONDUIT   1178.59     0  02:13      2.34    0.61    1.00
  YS02163301YS02001633 CONDUIT    937.45     0  02:39      1.19    0.88    1.00
  YS02163601YS02164001 CONDUIT   1357.47     0  02:00      1.73    1.20    1.00
  YS02164001YS02001641 CONDUIT   1357.26     0  02:00      1.73    1.85    1.00
  CC-R1                PUMP       683.00     0  00:00              1.00
  CC-R2                PUMP       683.00     0  00:00              1.00
  CC-S1                PUMP       200.00     0  00:00              1.00
  CC-S2                PUMP       200.00     0  00:00              1.00
  JK-R1                PUMP      1000.00     0  00:00              1.00
  JK-R2                PUMP      1000.00     0  00:00              1.00
  JK-S                 PUMP       300.00     0  00:00              1.00
  
  
  ***************************
  Flow Classification Summary
  ***************************
  
  -------------------------------------------------------------------------------------
                      Adjusted    ---------- Fraction of Time in Flow Class ---------- 
                       /Actual         Up    Down  Sub   Sup   Up    Down  Norm  Inlet 
  Conduit               Length    Dry  Dry   Dry   Crit  Crit  Crit  Crit  Ltd   Ctrl  
  -------------------------------------------------------------------------------------
  1                       1.00   0.00  0.00  0.00  0.00  1.00  0.00  0.00  0.37  0.00
  WS02003060WS02003069    1.00   0.00  0.00  0.00  0.97  0.03  0.00  0.00  0.68  0.00
  WS02003066WSF200        1.00   0.05  0.00  0.00  0.00  0.95  0.00  0.00  0.82  0.00
  WS02003067WS02003066    1.00   0.05  0.00  0.00  0.95  0.00  0.00  0.00  0.00  0.00
  WS02003069WS02003072    1.00   0.00  0.00  0.00  0.99  0.01  0.00  0.00  0.69  0.00
  WS02003072WS02003073    1.00   0.00  0.00  0.00  0.00  0.00  0.00  1.00  0.00  0.00
  WS02004401WS02004402    1.00   0.02  0.00  0.00  0.98  0.00  0.00  0.00  0.00  0.00
  WS02004402WS02004403    1.00   0.02  0.00  0.00  0.98  0.00  0.00  0.00  0.00  0.00
  WS02004403WS02004404    1.00   0.00  0.03  0.00  0.97  0.00  0.00  0.00  0.00  0.00
  WS02004404WS02004405    1.00   0.00  0.00  0.00  1.00  0.00  0.00  0.00  0.01  0.00
  WS02004405WS02004406    1.00   0.00  0.00  0.00  1.00  0.00  0.00  0.00  0.00  0.00
  WS02004406WS02004407    1.00   0.00  0.03  0.00  0.97  0.00  0.00  0.00  0.00  0.00
  WS02004407WS02004409    1.00   0.03  0.00  0.00  0.95  0.01  0.00  0.00  0.95  0.00
  WS02004409WS02004410    1.00   0.03  0.00  0.00  0.96  0.00  0.00  0.00  0.00  0.00
  WS02004410WS02004411    1.00   0.04  0.00  0.00  0.96  0.00  0.00  0.00  0.00  0.00
  WS02004411WS02004412    1.00   0.04  0.00  0.00  0.96  0.00  0.00  0.00  0.00  0.00
  WS02004412WS02004413    1.00   0.04  0.00  0.00  0.96  0.00  0.00  0.00  0.00  0.00
  WS02004413WS02003067    1.00   0.04  0.01  0.00  0.00  0.00  0.95  0.00  0.00  0.00
  WS02006109WS02006110    1.00   0.00  0.01  0.00  0.98  0.00  0.01  0.00  0.00  0.00
  WS02006110WS02006113    1.00   0.01  0.01  0.00  0.98  0.00  0.00  0.00  0.00  0.00
  WS02006111WS02006112    1.00   0.02  0.00  0.00  0.98  0.00  0.00  0.00  0.98  0.00
  WS02006112WS02006115    1.00   0.02  0.00  0.00  0.97  0.00  0.00  0.00  0.00  0.00
  WS02006113WS02006111    1.00   0.02  0.00  0.00  0.00  0.98  0.00  0.00  0.16  0.00
  WS02006115WS02006116    1.00   0.02  0.00  0.00  0.97  0.00  0.00  0.01  0.00  0.00
  WS02006116WS02004401    1.00   0.02  0.00  0.00  0.98  0.00  0.00  0.00  0.00  0.00
  WS02006228WS02006109    1.00   0.00  0.00  0.00  1.00  0.00  0.00  0.00  0.00  0.00
  WS02006229WS02006228    1.00   0.00  0.00  0.00  0.99  0.00  0.00  0.01  0.00  0.00
  WS02006230WS02006229    1.00   0.00  0.00  0.00  0.99  0.00  0.00  0.01  0.02  0.00
  WS02006231WS02006230    1.00   0.00  0.00  0.00  0.32  0.00  0.68  0.00  0.00  0.00
  WS02006232WS02006231    1.00   0.00  0.00  0.00  0.98  0.00  0.02  0.00  0.00  0.00
  WS02006234WS02006232    1.00   0.00  0.00  0.00  1.00  0.00  0.00  0.00  0.04  0.00
  WS02006235WS02006234    1.00   0.00  0.00  0.00  0.93  0.00  0.07  0.00  0.00  0.00
  WS02006238WS02006235    1.00   0.00  0.00  0.00  1.00  0.00  0.00  0.00  0.00  0.00
  WS02006239WS02006238    1.00   0.00  0.00  0.00  1.00  0.00  0.00  0.00  0.24  0.00
  WS02006240WS02006239    1.00   0.00  0.00  0.00  0.65  0.00  0.00  0.35  0.04  0.00
  WS02006242WS02006240    1.00   0.00  0.00  0.00  0.99  0.00  0.01  0.00  0.02  0.00
  WS02006243WS02006242    1.00   0.00  0.00  0.00  0.99  0.00  0.00  0.01  0.56  0.00
  WS02006245WS02006243    1.00   0.00  0.00  0.00  0.60  0.00  0.00  0.40  0.02  0.00
  WS02006247WS02006245    1.00   0.00  0.00  0.00  0.99  0.00  0.00  0.01  0.00  0.00
  WS02006248WS02006247    1.00   0.00  0.00  0.00  0.99  0.00  0.00  0.01  0.21  0.00
  WS02006249WS02006248    1.00   0.00  0.00  0.00  0.42  0.00  0.58  0.00  0.00  0.00
  WS02006251WS02006249    1.00   0.00  0.00  0.00  1.00  0.00  0.00  0.00  0.59  0.00
  WS02006252WS02006251    1.00   0.00  0.52  0.00  0.21  0.00  0.27  0.00  0.00  0.00
  WS02006256WS02006235    1.00   0.00  0.00  0.00  0.98  0.02  0.00  0.00  0.00  0.00
  WSF200WS02003060        1.00   0.00  0.05  0.00  0.36  0.60  0.00  0.00  0.62  0.00
  YS02001580YS02001583    1.00   0.24  0.53  0.00  0.23  0.00  0.00  0.00  0.63  0.00
  YS02001583YS02001586    1.00   0.39  0.32  0.00  0.28  0.00  0.00  0.00  0.63  0.00
  YS02001586YS02001590    1.00   0.13  0.00  0.00  0.47  0.04  0.00  0.36  0.37  0.00
  YS02001590YS02001593    1.00   0.13  0.01  0.00  0.16  0.00  0.71  0.00  0.00  0.00
  YS02001593YS02001596    1.00   0.13  0.00  0.00  0.18  0.01  0.00  0.68  0.02  0.00
  YS02001596YS02001600    1.00   0.13  0.00  0.00  0.24  0.01  0.00  0.62  0.04  0.00
  YS02001600YS02001601    1.00   0.13  0.01  0.00  0.86  0.00  0.00  0.00  0.57  0.00
  YS02001601YS02001602    1.00   0.13  0.01  0.00  0.87  0.00  0.00  0.00  0.00  0.00
  YS02001602YS02001605    1.00   0.13  0.00  0.00  0.87  0.00  0.00  0.00  0.00  0.00
  YS02001605YS02001607    1.00   0.14  0.00  0.00  0.86  0.00  0.00  0.00  0.00  0.00
  YS02001607YS02001610    1.00   0.13  0.01  0.00  0.86  0.00  0.00  0.00  0.01  0.00
  YS02001610YS02001613    1.00   0.13  0.00  0.00  0.87  0.00  0.00  0.00  0.00  0.00
  YS02001613YS02001616    1.00   0.13  0.00  0.00  0.87  0.00  0.00  0.00  0.00  0.00
  YS02001616YS02001619    1.00   0.13  0.00  0.00  0.87  0.00  0.00  0.00  0.00  0.00
  YS02001619YS02001622    1.00   0.13  0.00  0.00  0.87  0.00  0.00  0.00  0.26  0.00
  YS02001622YS02001625    1.00   0.13  0.00  0.00  0.87  0.00  0.00  0.00  0.03  0.00
  YS02001625YS02001629    1.00   0.13  0.04  0.00  0.20  0.00  0.64  0.00  0.00  0.00
  YS02001629YS02163301    1.00   0.15  0.01  0.00  0.84  0.00  0.00  0.00  0.00  0.00
  YS02001633YS02163601    1.00   0.00  0.01  0.00  0.99  0.00  0.00  0.00  0.14  0.00
  YS02001641YS02001644    1.00   0.00  0.01  0.00  0.99  0.00  0.00  0.00  0.00  0.00
  YS02001644YS02001647    1.00   0.00  0.16  0.00  0.84  0.00  0.00  0.00  0.00  0.00
  YS02001647YS02001649    1.00   0.00  0.16  0.00  0.54  0.30  0.00  0.00  0.54  0.00
  YS02001649YS02001757    1.00   0.00  0.00  0.00  0.80  0.19  0.00  0.00  0.58  0.00
  YS02001652YS02001649    1.00   0.00  0.00  0.00  0.97  0.03  0.00  0.00  0.71  0.00
  YS02001655YS02001652    1.00   0.00  0.00  0.00  0.22  0.01  0.00  0.77  0.08  0.00
  YS02001658YS02001655    1.00   0.00  0.14  0.00  0.65  0.21  0.00  0.00  0.69  0.00
  YS02001661YS02001658    1.00   0.14  0.00  0.00  0.47  0.39  0.00  0.00  0.70  0.00
  YS02001664YS02001661    1.00   0.13  0.00  0.00  0.72  0.16  0.00  0.00  0.84  0.00
  YS02001745YS02001748    1.00   0.00  0.00  0.00  0.08  0.01  0.00  0.91  0.05  0.00
  YS02001748YS02001751    1.00   0.00  0.00  0.00  0.80  0.20  0.00  0.00  0.77  0.00
  YS02001751YS02001754    1.00   0.00  0.00  0.00  0.17  0.01  0.00  0.82  0.04  0.00
  YS02001754YS02001757    1.00   0.00  0.00  0.00  1.00  0.00  0.00  0.00  0.81  0.00
  YS02001757CaochengTiaoxuchi    1.00   0.00  0.00  0.00  0.30  0.70  0.00  0.00  0.28  0.00
  YS02001759YS02001757    1.00   0.00  0.00  0.00  1.00  0.00  0.00  0.00  0.62  0.00
  YS02001762YS02001759    1.00   0.00  0.00  0.00  1.00  0.00  0.00  0.00  0.05  0.00
  YS02001765YS02001762    1.00   0.00  0.00  0.00  1.00  0.00  0.00  0.00  0.70  0.00
  YS02001767YS02001765    1.00   0.00  0.00  0.00  1.00  0.00  0.00  0.00  0.00  0.00
  YS02001770YS02001767    1.00   0.00  0.00  0.00  1.00  0.00  0.00  0.00  0.00  0.00
  YS02001774YS02001770    1.00   0.00  0.13  0.00  0.72  0.00  0.15  0.00  0.02  0.00
  YS02001779YS02001774    1.00   0.00  0.00  0.00  1.00  0.00  0.00  0.00  0.76  0.00
  YS02001783YS02001784    1.00   0.00  0.17  0.00  0.83  0.00  0.00  0.00  0.54  0.00
  YS02001784YS02001785    1.00   0.00  0.00  0.00  1.00  0.00  0.00  0.00  0.16  0.00
  YS02001786YS02001788    1.00   0.00  0.00  0.00  0.79  0.21  0.00  0.00  0.00  0.00
  YS02001788YS02001790    1.00   0.00  0.00  0.00  0.21  0.79  0.00  0.00  0.77  0.00
  YS02001790YS02001791    1.00   0.00  0.00  0.00  0.01  0.99  0.00  0.00  0.16  0.00
  YS02001791YS02001793    1.00   0.00  0.00  0.00  0.00  1.00  0.00  0.00  0.01  0.00
  YS02001793JiankangQianchi    1.00   0.00  0.00  0.00  0.42  0.58  0.00  0.00  0.83  0.00
  YS02001882YS02001884    1.00   0.15  0.01  0.00  0.85  0.00  0.00  0.00  0.00  0.00
  YS02001884YS02001887    1.00   0.06  0.05  0.00  0.89  0.00  0.00  0.00  0.00  0.00
  YS02001887YS02001890    1.00   0.00  0.00  0.00  0.97  0.00  0.03  0.00  0.00  0.00
  YS02001890YS02001895    1.00   0.00  0.15  0.00  0.85  0.00  0.00  0.00  0.00  0.00
  YS02001895YS02001898    1.00   0.15  0.00  0.00  0.83  0.00  0.02  0.00  0.00  0.00
  YS02001898YS02001901    1.00   0.16  0.00  0.00  0.84  0.00  0.00  0.00  0.01  0.00
  YS02001901YS02001904    1.00   0.16  0.00  0.00  0.84  0.00  0.00  0.00  0.00  0.00
  YS02001904YS02001907    1.00   0.00  0.15  0.00  0.84  0.00  0.00  0.00  0.00  0.00
  YS02001907YS02006553    1.00   0.00  0.02  0.00  0.98  0.00  0.00  0.00  0.00  0.00
  YS02001910YS02001907    1.00   0.00  0.00  0.00  0.97  0.00  0.00  0.03  0.12  0.00
  YS02001915YS02001910    1.00   0.00  0.00  0.00  0.97  0.03  0.00  0.00  0.13  0.00
  YS02001918YS02001915    1.00   0.00  0.01  0.00  0.98  0.02  0.00  0.00  0.70  0.00
  YS02001920YS02001918    1.00   0.00  0.01  0.00  0.99  0.00  0.00  0.00  0.00  0.00
  YS02001923YS02001920    1.00   0.00  0.00  0.00  1.00  0.00  0.00  0.00  0.89  0.00
  YS02001926YS02001923    1.00   0.00  0.07  0.00  0.09  0.00  0.84  0.00  0.00  0.00
  YS02001929YS02001926    1.00   0.00  0.13  0.00  0.87  0.00  0.00  0.00  0.79  0.00
  YS02006553YS02006556    1.00   0.01  0.00  0.00  0.99  0.00  0.00  0.00  0.03  0.00
  YS02006556YS02006558    1.00   0.00  0.00  0.00  1.00  0.00  0.00  0.00  0.00  0.00
  YS02006558YS02006561    1.00   0.17  0.00  0.00  0.08  0.75  0.00  0.00  0.17  0.00
  YS02006561YS02001783    1.00   0.17  0.00  0.00  0.12  0.71  0.00  0.00  0.65  0.00
  YS02163301YS02001633    1.00   0.00  0.14  0.00  0.86  0.00  0.00  0.00  0.00  0.00
  YS02163601YS02164001    1.00   0.00  0.08  0.00  0.92  0.00  0.00  0.00  0.00  0.00
  YS02164001YS02001641    1.00   0.01  0.08  0.00  0.92  0.00  0.00  0.00  0.05  0.00
  
  
  *************************
  Conduit Surcharge Summary
  *************************
  
  ----------------------------------------------------------------------------
                                                           Hours        Hours 
                         --------- Hours Full --------   Above Full   Capacity
  Conduit                Both Ends  Upstream  Dnstream   Normal Flow   Limited
  ----------------------------------------------------------------------------
  WS02003072WS02003073        0.01      0.01      0.01      1.98         0.01
  WS02004403WS02004404        0.01      0.01      0.01      0.01         0.01
  WS02004404WS02004405        0.01      0.01      0.01      3.42         0.01
  WS02004405WS02004406        0.01      0.01      0.01      1.19         0.01
  WS02006109WS02006110        0.51      0.51      2.44      0.78         0.01
  WS02006110WS02006113        0.01      0.01      2.42      0.01         0.01
  WS02006111WS02006112        0.01      0.01      2.48      0.01         0.01
  WS02006112WS02006115        0.01      0.01      1.61      0.01         0.01
  WS02006228WS02006109        2.36      2.44      2.36      2.75         2.36
  WS02006229WS02006228        2.34      2.37      2.34      2.62         2.32
  WS02006230WS02006229        2.50      2.55      2.50      3.80         2.50
  WS02006231WS02006230        0.56      0.56      1.53      3.43         0.01
  WS02006232WS02006231        1.23      1.23      2.47      1.34         0.01
  WS02006234WS02006232        2.09      2.09      2.47      1.27         1.11
  WS02006235WS02006234        1.69      1.76      2.05      3.22         0.14
  WS02006238WS02006235        2.14      2.15      2.46      0.01         0.09
  WS02006239WS02006238        2.28      2.44      2.29      2.54         1.85
  WS02006240WS02006239        2.27      2.37      2.28      2.56         1.78
  WS02006242WS02006240        2.35      2.35      2.49      2.72         0.03
  WS02006243WS02006242        2.36      2.36      2.45      0.01         0.36
  WS02006245WS02006243        2.34      2.35      2.35      2.22         1.48
  WS02006247WS02006245        2.34      2.38      2.34      2.86         2.16
  WS02006248WS02006247        2.34      2.34      2.37      0.01         0.42
  WS02006249WS02006248        2.32      2.33      2.35      2.84         0.01
  WS02006251WS02006249        2.34      2.35      2.35      2.77         2.05
  WS02006252WS02006251        2.85      2.85      2.85      2.86         0.01
  WS02006256WS02006235        3.03      3.30      5.60      1.75         0.02
  YS02001580YS02001583        0.88      0.88      0.92      0.01         0.01
  YS02001583YS02001586        0.88      0.88      1.00      0.01         0.01
  YS02001586YS02001590        1.01      1.01      1.10      0.01         0.01
  YS02001590YS02001593        1.09      1.09      1.13      1.14         0.01
  YS02001593YS02001596        1.12      1.12      1.24      0.01         0.01
  YS02001596YS02001600        1.30      1.30      1.39      0.01         0.01
  YS02001600YS02001601        1.45      1.45      1.73      0.01         0.01
  YS02001601YS02001602        1.62      1.62      1.77      1.42         0.01
  YS02001602YS02001605        1.57      1.57      1.62      2.54         0.01
  YS02001605YS02001607        1.52      1.57      1.52      1.69         1.52
  YS02001607YS02001610        1.02      1.02      1.06      0.01         0.01
  YS02001610YS02001613        1.01      1.01      1.06      0.01         0.01
  YS02001613YS02001616        0.96      0.96      1.01      0.01         0.01
  YS02001616YS02001619        0.95      0.95      0.96      0.15         0.08
  YS02001619YS02001622        0.94      0.95      0.94      1.16         0.92
  YS02001622YS02001625        0.94      0.94      1.18      0.01         0.01
  YS02001625YS02001629        0.82      0.82      1.18      0.01         0.01
  YS02001629YS02163301        1.15      1.15      1.16      0.51         0.45
  YS02001633YS02163601        1.18      1.18      1.22      0.64         0.63
  YS02001641YS02001644        0.98      1.04      0.98      1.79         0.97
  YS02001644YS02001647        0.67      0.67      0.98      0.04         0.01
  YS02001647YS02001649        0.67      0.67      0.76      0.01         0.01
  YS02001649YS02001757        0.75      0.76      0.78      0.52         0.42
  YS02001652YS02001649        0.58      0.58      0.76      0.01         0.01
  YS02001655YS02001652        0.42      0.42      0.56      0.01         0.01
  YS02001658YS02001655        0.31      0.31      0.42      0.01         0.01
  YS02001661YS02001658        0.14      0.14      0.31      0.01         0.01
  YS02001664YS02001661        0.01      0.01      0.18      0.01         0.01
  YS02001745YS02001748        0.01      0.01      0.21      0.01         0.01
  YS02001748YS02001751        0.27      0.27      0.33      0.01         0.01
  YS02001751YS02001754        0.33      0.33      0.42      0.01         0.01
  YS02001754YS02001757        0.46      0.46      0.78      0.01         0.01
  YS02001757CaochengTiaoxuchi        0.37      0.78      0.84      0.67         0.18
  YS02001759YS02001757        0.68      0.68      0.78      0.16         0.16
  YS02001762YS02001759        0.64      0.64      0.68      0.01         0.04
  YS02001765YS02001762        0.60      0.60      0.64      0.01         0.01
  YS02001767YS02001765        0.57      0.57      0.60      0.02         0.06
  YS02001770YS02001767        0.57      0.57      0.57      0.78         0.51
  YS02001774YS02001770        0.55      0.55      0.63      0.01         0.01
  YS02001779YS02001774        0.44      0.44      0.63      0.01         0.01
  YS02001783YS02001784        0.72      0.75      0.72      0.95         0.72
  YS02001784YS02001785        0.59      0.72      0.59      1.29         0.59
  YS02001786YS02001788        0.01      0.59      0.01      1.11         0.01
  YS02001790YS02001791        0.01      0.01      0.01      0.71         0.01
  YS02001882YS02001884        0.68      0.68      0.69      0.01         0.01
  YS02001884YS02001887        0.72      0.72      0.74      0.01         0.01
  YS02001887YS02001890        0.76      0.76      0.77      0.22         0.01
  YS02001890YS02001895        0.67      0.67      0.80      0.01         0.01
  YS02001895YS02001898        0.66      0.66      0.67      0.01         0.01
  YS02001898YS02001901        0.67      0.67      0.72      0.01         0.01
  YS02001901YS02001904        0.71      0.71      0.72      0.01         0.01
  YS02001904YS02001907        0.71      0.71      1.08      0.01         0.01
  YS02001907YS02006553        1.30      1.30      1.38      0.01         0.01
  YS02001910YS02001907        0.79      0.79      1.05      0.12         0.12
  YS02001915YS02001910        0.68      0.68      0.79      0.01         0.01
  YS02001918YS02001915        0.58      0.58      0.68      0.01         0.01
  YS02001920YS02001918        0.58      0.58      0.59      0.01         0.01
  YS02001923YS02001920        0.53      0.53      0.59      0.01         0.01
  YS02001926YS02001923        0.24      0.24      0.27      0.06         0.01
  YS02001929YS02001926        0.13      0.13      0.27      0.01         0.01
  YS02006553YS02006556        0.92      0.92      1.08      0.01         0.01
  YS02006556YS02006558        1.00      1.00      1.10      0.01         0.01
  YS02006558YS02006561        0.62      0.89      0.62      1.23         0.62
  YS02006561YS02001783        0.54      0.54      0.75      0.01         0.01
  YS02163301YS02001633        1.16      1.16      1.21      0.01         0.01
  YS02163601YS02164001        1.06      1.06      1.22      0.35         0.01
  YS02164001YS02001641        1.04      1.06      1.04      0.97         0.78
  
  
  ***************
  Pumping Summary
  ***************
  
  ---------------------------------------------------------------------------------------------------------
                                                  Min       Avg       Max     Total     Power    % Time Off
                        Percent   Number of      Flow      Flow      Flow    Volume     Usage    Pump Curve
  Pump                 Utilized   Start-Ups       LPS       LPS       LPS  10^6 ltr     Kw-hr    Low   High
  ---------------------------------------------------------------------------------------------------------
  CC-R1                   30.90           3      0.00    683.00    683.00     6.016    101.39    0.0   65.8
  CC-R2                   30.90           3      0.00    683.00    683.00     6.016    101.39    0.0   65.8
  CC-S1                   36.05           5      0.00    200.00    200.00     2.055     15.52    0.0   37.9
  CC-S2                   36.05           5      0.00    200.00    200.00     2.055     15.52    0.0   37.9
  JK-R1                    6.15          86      0.00    999.85   1000.00     1.753      5.06    0.0    0.0
  JK-R2                    6.15          86      0.00    999.85   1000.00     1.753      5.06    0.0    0.0
  JK-S                    21.78         114      0.00    299.92    300.00     1.861     41.78    0.0    0.0
  

  Analysis begun on:  Thu Jan 16 14:28:18 2025
  Analysis ended on:  Thu Jan 16 14:28:19 2025
  Total elapsed time: 00:00:01