
  EPA STORM WATER MANAGEMENT MODEL - VERSION 5.2 (Build 5.2.4)
  PYSWMM TOOLKIT API - VERSION v1.0 (2023-11-27)
  ------------------------------------------------------------

  WARNING 04: minimum elevation drop used for Conduit WS02004404WS02004405
  WARNING 03: negative offset ignored for Link YS02001904YS02001907
  
  ****************
  Analysis Options
  ****************
  Flow Units ............... LPS
  Process Models:
    Rainfall/Runoff ........ YES
    RDII ................... NO
    Snowmelt ............... NO
    Groundwater ............ NO
    Flow Routing ........... YES
    Ponding Allowed ........ NO
    Water Quality .......... NO
  Infiltration Method ...... HORTON
  Flow Routing Method ...... DYNWAVE
  Surcharge Method ......... EXTRAN
  Starting Date ............ 08/28/2015 08:00:00
  Ending Date .............. 08/28/2015 16:00:00
  Antecedent Dry Days ...... 8.0
  Report Time Step ......... 00:01:00
  Wet Time Step ............ 00:01:00
  Dry Time Step ............ 00:01:00
  Routing Time Step ........ 30.00 sec
  Variable Time Step ....... YES
  Maximum Trials ........... 8
  Number of Threads ........ 4
  Head Tolerance ........... 0.001500 m
  
  
  **************************        Volume         Depth
  Runoff Quantity Continuity     hectare-m            mm
  **************************     ---------       -------
  Total Precipitation ......         3.137        94.582
  Evaporation Loss .........         0.000         0.000
  Infiltration Loss ........         0.104         3.150
  Surface Runoff ...........         3.000        90.452
  Final Storage ............         0.033         0.998
  Continuity Error (%) .....        -0.018
  
  
  **************************        Volume        Volume
  Flow Routing Continuity        hectare-m      10^6 ltr
  **************************     ---------     ---------
  Dry Weather Inflow .......         0.025         0.248
  Wet Weather Inflow .......         3.000        29.999
  Groundwater Inflow .......         0.000         0.000
  RDII Inflow ..............         0.000         0.000
  External Inflow ..........         0.083         0.825
  External Outflow .........         2.159        21.595
  Flooding Loss ............         1.160        11.600
  Evaporation Loss .........         0.000         0.000
  Exfiltration Loss ........         0.000         0.000
  Initial Stored Volume ....         0.243         2.431
  Final Stored Volume ......         0.047         0.466
  Continuity Error (%) .....        -0.471
  
  
  *************************
  Highest Continuity Errors
  *************************
  Node YS02001884 (5.23%)
  Node YS02001583 (-3.94%)
  Node WS02006256 (-3.65%)
  Node JK-storage (-1.38%)
  
  
  ***************************
  Time-Step Critical Elements
  ***************************
  Link WS02006238WS02006235 (26.92%)
  Link WS02004404WS02004405 (21.06%)
  Link WS02003066WSF200 (12.89%)
  Link YS02001793JiankangQianchi (9.23%)
  Link YS02001791YS02001793 (6.32%)
  
  
  ********************************
  Highest Flow Instability Indexes
  ********************************
  Link WS02006113WS02006111 (37)
  Link WS02006252WS02006251 (32)
  Link WS02004404WS02004405 (27)
  Link WS02004403WS02004404 (25)
  Link YS02001602YS02001605 (24)
  
  
  *********************************
  Most Frequent Nonconverging Nodes
  *********************************
  Node CC-1 (38.22%)
  Node CC-2 (38.22%)
  Node JK-1 (38.22%)
  Node JK-2 (38.22%)
  Node WSC (38.22%)
  
  
  *************************
  Routing Time Step Summary
  *************************
  Minimum Time Step           :     0.00 sec
  Average Time Step           :     2.71 sec
  Maximum Time Step           :     6.43 sec
  % of Time in Steady State   :     0.00
  Average Iterations per Step :     4.70
  % of Steps Not Converging   :    38.22
  Time Step Frequencies       :
     30.000 - 13.228 sec      :     0.00 %
     13.228 -  5.833 sec      :    12.10 %
      5.833 -  2.572 sec      :    29.03 %
      2.572 -  1.134 sec      :    40.95 %
      1.134 -  0.500 sec      :    17.91 %
  
  
  ***************************
  Subcatchment Runoff Summary
  ***************************
  
  ------------------------------------------------------------------------------------------------------------------------------
                            Total      Total      Total      Total     Imperv       Perv      Total       Total     Peak  Runoff
                           Precip      Runon       Evap      Infil     Runoff     Runoff     Runoff      Runoff   Runoff   Coeff
  Subcatchment                 mm         mm         mm         mm         mm         mm         mm    10^6 ltr      LPS
  ------------------------------------------------------------------------------------------------------------------------------
  sub60                     94.58       0.00       0.00       1.89      82.03       9.47      91.50        1.20   742.62   0.967
  sub61                     94.58       0.00       0.00       2.73      77.38      13.35      90.72        1.66  1032.42   0.959
  sub62                     94.58       0.00       0.00       1.26      85.73       6.31      92.04        2.52  1473.36   0.973
  sub63                     94.58       0.00       0.00       5.05      66.19      22.39      88.57        2.01  1189.06   0.936
  sub64                     94.58       0.00       0.00       2.55      79.19      11.64      90.83        2.18  1219.11   0.960
  sub65                     94.58       0.00       0.00       2.21      81.03      10.09      91.12        2.51  1365.05   0.963
  sub66                     94.58       0.00       0.00       6.26      66.07      21.18      87.25        4.07  1864.38   0.922
  sub67                     94.58       0.00       0.00       1.21      85.78       6.36      92.14        1.71  1108.90   0.974
  sub68                     94.58       0.00       0.00       2.27      80.16      10.98      91.14        2.51  1506.35   0.964
  sub69                     94.58       0.00       0.00       2.04      80.28      12.15      92.43        3.42  1813.93   0.977
  sub70                     94.58       0.00       0.00       6.82      62.26      25.34      87.60        2.53  1051.62   0.926
  sub71                     94.58       0.00       0.00       1.29      85.69       6.28      91.97        2.40  1315.29   0.972
  sub72                     94.58       0.00       0.00       1.15      86.55       5.47      92.03        1.27   647.12   0.973
  
  
  ******************
  Node Depth Summary
  ******************
  
  ---------------------------------------------------------------------------------
                                 Average  Maximum  Maximum  Time of Max    Reported
                                   Depth    Depth      HGL   Occurrence   Max Depth
  Node                 Type       Meters   Meters   Meters  days hr:min      Meters
  ---------------------------------------------------------------------------------
  WS02003060           JUNCTION     0.25     0.38     5.32     0  03:16        0.38
  WS02003066           JUNCTION     0.20     0.30     5.85     0  03:16        0.30
  WS02003067           JUNCTION     0.51     0.70     6.02     0  03:16        0.70
  WS02003069           JUNCTION     0.28     0.43     5.01     0  03:17        0.43
  WS02003072           JUNCTION     0.34     0.50     4.87     0  03:17        0.50
  WS02003073           JUNCTION     0.19     0.30     4.36     0  03:18        0.30
  WS02004401           JUNCTION     0.63     0.88     6.88     0  03:14        0.88
  WS02004402           JUNCTION     0.66     0.91     6.87     0  03:14        0.90
  WS02004403           JUNCTION     0.67     0.93     6.86     0  03:14        0.91
  WS02004404           JUNCTION     0.75     1.06     6.91     0  03:14        1.02
  WS02004405           JUNCTION     0.73     0.97     6.82     0  03:14        0.96
  WS02004406           JUNCTION     0.74     0.96     6.79     0  03:14        0.96
  WS02004407           JUNCTION     0.19     0.30     6.61     0  03:14        0.30
  WS02004409           JUNCTION     0.42     0.67     6.44     0  03:15        0.67
  WS02004410           JUNCTION     0.44     0.68     6.40     0  03:15        0.68
  WS02004411           JUNCTION     0.46     0.69     6.37     0  03:15        0.69
  WS02004412           JUNCTION     0.48     0.70     6.34     0  03:16        0.70
  WS02004413           JUNCTION     0.63     0.86     6.33     0  03:16        0.86
  WS02006109           JUNCTION     0.70     1.36     7.98     0  02:48        1.02
  WS02006110           JUNCTION     0.69     1.45     8.04     0  02:48        0.98
  WS02006111           JUNCTION     0.19     0.29     6.99     0  03:05        0.29
  WS02006112           JUNCTION     0.79     1.14     7.02     0  03:21        1.08
  WS02006113           JUNCTION     0.30     0.46     7.35     0  01:35        0.45
  WS02006115           JUNCTION     0.52     0.77     6.91     0  03:12        0.77
  WS02006116           JUNCTION     0.60     0.85     6.89     0  03:13        0.85
  WS02006228           JUNCTION     0.71     1.27     7.92     0  02:48        1.16
  WS02006229           JUNCTION     0.68     1.24     7.94     0  01:40        1.20
  WS02006230           JUNCTION     0.71     1.49     8.24     0  01:40        1.29
  WS02006231           JUNCTION     0.50     2.17     9.29     0  02:34        1.35
  WS02006232           JUNCTION     0.64     2.18     9.22     0  02:10        2.18
  WS02006234           JUNCTION     0.58     1.96     9.12     0  01:49        1.96
  WS02006235           JUNCTION     0.62     2.00     9.16     0  01:49        2.00
  WS02006238           JUNCTION     0.65     2.15     9.29     0  01:58        2.15
  WS02006239           JUNCTION     0.63     2.03     9.24     0  01:58        2.03
  WS02006240           JUNCTION     0.60     2.10     9.39     0  02:10        2.10
  WS02006242           JUNCTION     0.67     1.55     8.82     0  01:41        1.55
  WS02006243           JUNCTION     0.60     1.48     8.90     0  01:45        1.48
  WS02006245           JUNCTION     0.60     1.56     9.04     0  02:10        1.56
  WS02006247           JUNCTION     0.62     1.47     8.97     0  01:44        1.47
  WS02006248           JUNCTION     0.59     1.10     8.69     0  01:38        1.10
  WS02006249           JUNCTION     0.61     1.09     8.69     0  01:32        1.09
  WS02006251           JUNCTION     0.62     1.48     9.15     0  03:41        1.27
  WS02006252           JUNCTION     0.39     1.50     9.74     0  00:00        0.99
  WS02006256           JUNCTION     1.20     2.35     9.28     0  00:00        2.35
  WSF200               JUNCTION     0.18     0.29     5.52     0  03:15        0.29
  YS02001580           JUNCTION     0.20     1.05     9.59     0  01:47        0.77
  YS02001583           JUNCTION     0.23     1.14     9.64     0  01:46        1.14
  YS02001586           JUNCTION     0.36     1.13     9.30     0  01:46        1.13
  YS02001590           JUNCTION     0.48     1.40     9.26     0  02:19        1.40
  YS02001593           JUNCTION     0.41     1.33     9.19     0  01:47        1.33
  YS02001596           JUNCTION     0.56     1.80     9.22     0  02:10        1.80
  YS02001600           JUNCTION     0.66     1.87     9.00     0  01:47        1.87
  YS02001601           JUNCTION     0.85     2.06     8.90     0  01:46        2.06
  YS02001602           JUNCTION     0.74     1.87     8.77     0  01:50        1.87
  YS02001605           JUNCTION     0.68     1.78     8.68     0  02:10        1.77
  YS02001607           JUNCTION     0.63     1.68     8.53     0  02:19        1.68
  YS02001610           JUNCTION     0.67     1.68     8.48     0  01:51        1.68
  YS02001613           JUNCTION     0.63     1.70     8.54     0  02:10        1.70
  YS02001616           JUNCTION     0.56     1.61     8.52     0  01:54        1.61
  YS02001619           JUNCTION     0.54     1.61     8.54     0  01:54        1.61
  YS02001622           JUNCTION     0.53     1.60     8.50     0  02:10        1.58
  YS02001625           JUNCTION     0.77     1.78     8.38     0  01:51        1.78
  YS02001629           JUNCTION     0.67     1.85     8.40     0  01:53        1.85
  YS02001633           JUNCTION     0.74     2.07     8.53     0  02:10        2.06
  YS02001641           JUNCTION     0.69     2.04     8.47     0  02:10        2.00
  YS02001644           JUNCTION     0.68     1.92     8.35     0  01:55        1.92
  YS02001647           JUNCTION     0.46     1.76     8.37     0  02:00        1.76
  YS02001649           JUNCTION     0.51     2.00     8.39     0  02:00        1.99
  YS02001652           JUNCTION     0.39     1.86     8.45     0  02:00        1.85
  YS02001655           JUNCTION     0.30     2.20     9.05     0  01:53        1.69
  YS02001658           JUNCTION     0.21     1.47     8.61     0  02:01        1.44
  YS02001661           JUNCTION     0.21     1.27     8.68     0  02:01        1.27
  YS02001664           JUNCTION     0.10     0.76     8.69     0  02:01        0.76
  YS02001745           JUNCTION     0.11     0.90     8.42     0  02:00        0.90
  YS02001748           JUNCTION     0.19     1.50     8.58     0  01:55        1.31
  YS02001751           JUNCTION     0.24     1.52     8.40     0  01:55        1.48
  YS02001754           JUNCTION     0.33     1.73     8.34     0  02:00        1.72
  YS02001757           JUNCTION     0.52     2.04     8.30     0  02:00        2.04
  YS02001759           JUNCTION     0.46     2.06     8.42     0  02:00        2.05
  YS02001762           JUNCTION     0.45     2.02     8.42     0  01:59        2.02
  YS02001765           JUNCTION     0.43     2.00     8.45     0  02:10        1.98
  YS02001767           JUNCTION     0.42     1.99     8.48     0  02:10        1.95
  YS02001770           JUNCTION     0.43     1.95     8.44     0  01:59        1.95
  YS02001774           JUNCTION     0.49     2.05     8.47     0  02:10        2.03
  YS02001779           JUNCTION     0.32     1.68     8.37     0  01:52        1.68
  YS02001783           JUNCTION     0.39     1.30     7.44     0  02:10        1.27
  YS02001784           JUNCTION     0.38     1.18     7.24     0  02:10        1.13
  YS02001786           JUNCTION     0.32     0.91     6.94     0  02:10        0.88
  YS02001788           JUNCTION     0.23     0.63     6.61     0  02:01        0.63
  YS02001790           JUNCTION     0.27     0.73     6.38     0  02:01        0.73
  YS02001791           JUNCTION     0.17     0.44     5.91     0  02:00        0.43
  YS02001793           JUNCTION     0.09     0.26     5.10     0  02:00        0.25
  YS02001882           JUNCTION     0.48     1.71     8.43     0  02:10        1.68
  YS02001884           JUNCTION     0.56     1.80     8.42     0  02:10        1.78
  YS02001887           JUNCTION     0.64     1.86     8.40     0  02:01        1.86
  YS02001890           JUNCTION     0.66     1.81     8.32     0  01:51        1.81
  YS02001895           JUNCTION     0.45     1.65     8.39     0  02:19        1.65
  YS02001898           JUNCTION     0.45     1.63     8.37     0  02:19        1.63
  YS02001901           JUNCTION     0.56     1.87     8.48     0  02:19        1.87
  YS02001904           JUNCTION     0.54     1.66     8.29     0  02:10        1.66
  YS02001907           JUNCTION     0.84     1.96     8.25     0  01:51        1.96
  YS02001910           JUNCTION     0.66     2.01     8.52     0  02:01        2.00
  YS02001915           JUNCTION     0.49     2.00     8.72     0  02:01        2.00
  YS02001918           JUNCTION     0.32     1.81     8.88     0  01:52        1.71
  YS02001920           JUNCTION     0.39     2.06     9.07     0  01:52        1.78
  YS02001923           JUNCTION     0.25     1.96     9.22     0  01:52        1.56
  YS02001926           JUNCTION     0.26     1.86     9.30     0  01:52        1.39
  YS02001929           JUNCTION     0.17     1.78     9.47     0  01:52        1.17
  YS02006553           JUNCTION     0.84     2.06     8.35     0  02:10        1.98
  YS02006556           JUNCTION     0.82     2.14     8.45     0  02:10        1.97
  YS02006558           JUNCTION     0.86     2.15     8.42     0  02:10        2.02
  YS02006561           JUNCTION     0.25     1.02     7.68     0  02:10        0.91
  YS02163301           JUNCTION     0.69     1.96     8.48     0  02:10        1.94
  YS02163601           JUNCTION     0.76     2.08     8.48     0  02:10        2.07
  YS02164001           JUNCTION     0.69     2.07     8.53     0  02:10        1.98
  CC-1                 OUTFALL      0.00     0.00     0.00     0  00:00        0.00
  CC-2                 OUTFALL      0.00     0.00     0.00     0  00:00        0.00
  JK-1                 OUTFALL      0.00     0.00     0.00     0  00:00        0.00
  JK-2                 OUTFALL      0.00     0.00     0.00     0  00:00        0.00
  WSC                  OUTFALL      0.19     0.30     0.97     0  03:18        0.30
  CC-storage           STORAGE      0.43     1.32     6.82     0  02:47        1.32
  JK-storage           STORAGE      0.14     2.99     3.79     0  00:00        0.68
  
  
  *******************
  Node Inflow Summary
  *******************
  
  -------------------------------------------------------------------------------------------------
                                  Maximum  Maximum                  Lateral       Total        Flow
                                  Lateral    Total  Time of Max      Inflow      Inflow     Balance
                                   Inflow   Inflow   Occurrence      Volume      Volume       Error
  Node                 Type           LPS      LPS  days hr:min    10^6 ltr    10^6 ltr     Percent
  -------------------------------------------------------------------------------------------------
  WS02003060           JUNCTION     16.53   553.33     0  03:17       0.471        5.73       0.034
  WS02003066           JUNCTION      0.00   536.72     0  03:16           0        5.26       0.028
  WS02003067           JUNCTION      0.00   536.74     0  03:16           0        5.26       0.077
  WS02003069           JUNCTION      0.32   553.53     0  03:16     0.00912        5.73       0.067
  WS02003072           JUNCTION      0.00   553.48     0  03:17           0        5.73       0.126
  WS02003073           JUNCTION      1.82   555.25     0  03:18      0.0519        5.77       0.094
  WS02004401           JUNCTION      0.00   541.39     0  03:17           0        5.36       0.191
  WS02004402           JUNCTION      0.00   545.83     0  03:14           0        5.35       0.195
  WS02004403           JUNCTION      0.00   547.93     0  03:14           0        5.33       0.189
  WS02004404           JUNCTION      0.16   553.71     0  03:13     0.00462        5.33       0.117
  WS02004405           JUNCTION      0.04   610.37     0  03:14     0.00109        5.32       0.173
  WS02004406           JUNCTION      0.00   546.81     0  03:14           0        5.32       0.393
  WS02004407           JUNCTION      0.00   539.42     0  03:14           0        5.29       0.019
  WS02004409           JUNCTION      0.00   538.39     0  03:14           0        5.29       0.048
  WS02004410           JUNCTION      0.00   537.44     0  03:15           0        5.29       0.084
  WS02004411           JUNCTION      0.00   537.22     0  03:15           0        5.29       0.104
  WS02004412           JUNCTION      0.00   536.89     0  03:16           0        5.28       0.138
  WS02004413           JUNCTION      0.00   536.94     0  03:16           0        5.27       0.258
  WS02006109           JUNCTION      1.23   558.79     0  02:51      0.0351        5.39       0.062
  WS02006110           JUNCTION      0.00   559.57     0  02:56           0        5.39       0.120
  WS02006111           JUNCTION      0.00   561.65     0  03:04           0        5.38       0.019
  WS02006112           JUNCTION      0.00   543.00     0  03:12           0        5.38       0.374
  WS02006113           JUNCTION      0.00   572.97     0  02:51           0        5.38       0.040
  WS02006115           JUNCTION      0.00   552.91     0  01:41           0        5.36       0.131
  WS02006116           JUNCTION      0.00   538.38     0  03:07           0        5.35      -0.018
  WS02006228           JUNCTION      0.00   558.02     0  02:51           0        5.36       0.008
  WS02006229           JUNCTION      0.00   558.48     0  02:51           0        5.37       0.139
  WS02006230           JUNCTION     10.28   597.12     0  03:02       0.293        5.37       0.010
  WS02006231           JUNCTION      0.00   598.62     0  01:46           0        5.07      -0.156
  WS02006232           JUNCTION      0.00   597.51     0  01:46           0        5.09       0.421
  WS02006234           JUNCTION      0.00   590.66     0  01:46           0        5.06      -0.481
  WS02006235           JUNCTION      0.00   578.22     0  02:34           0        5.17       0.408
  WS02006238           JUNCTION      0.00   426.21     0  02:42           0        3.96      -0.107
  WS02006239           JUNCTION      0.00   424.04     0  02:42           0        3.89      -0.105
  WS02006240           JUNCTION      0.00   420.65     0  02:42           0        3.84      -0.081
  WS02006242           JUNCTION      0.00   420.57     0  03:16           0        3.83      -0.069
  WS02006243           JUNCTION      0.00   421.64     0  02:42           0        3.82      -0.087
  WS02006245           JUNCTION      0.00   486.09     0  01:44           0        3.84       0.509
  WS02006247           JUNCTION      0.00   442.03     0  01:44           0        3.84       0.025
  WS02006248           JUNCTION      0.00   447.40     0  01:44           0        3.86       0.156
  WS02006249           JUNCTION      0.00   492.06     0  01:44           0        4.12       0.343
  WS02006251           JUNCTION      0.08   408.15     0  03:41     0.00219        4.12      -0.013
  WS02006252           JUNCTION      0.00   400.00     0  00:00           0        4.12      -0.041
  WS02006256           JUNCTION      0.00   322.53     0  01:57           0         1.9      -3.525
  WSF200               JUNCTION      0.00   536.73     0  03:16           0        5.25       0.006
  YS02001580           JUNCTION      0.00    75.77     0  01:46           0     0.00423       2.153
  YS02001583           JUNCTION      0.00   125.22     0  01:46           0      0.0157      -3.791
  YS02001586           JUNCTION   1051.62  1051.73     0  02:04        2.53        2.54       0.043
  YS02001590           JUNCTION      0.00   320.12     0  02:19           0        1.69      -0.026
  YS02001593           JUNCTION      0.00   321.65     0  02:19           0        1.69       0.013
  YS02001596           JUNCTION      0.00   318.06     0  02:05           0        1.69       0.003
  YS02001600           JUNCTION      0.00   318.16     0  02:19           0        1.69       0.019
  YS02001601           JUNCTION   1813.93  2131.55     0  02:02        3.42        5.11       0.018
  YS02001602           JUNCTION      0.00   499.83     0  01:46           0        2.77       0.017
  YS02001605           JUNCTION      0.00   499.13     0  01:46           0        2.62       0.018
  YS02001607           JUNCTION      0.00   498.02     0  01:46           0        2.62       0.079
  YS02001610           JUNCTION      0.00   954.25     0  02:07           0        3.22       0.080
  YS02001613           JUNCTION      0.00   618.12     0  02:07           0        2.54       0.069
  YS02001616           JUNCTION      0.00   617.97     0  02:05           0        2.55       0.023
  YS02001619           JUNCTION   1864.38  1864.38     0  02:03        4.07        6.02       0.003
  YS02001622           JUNCTION      0.00  1053.73     0  02:06           0        5.36       0.003
  YS02001625           JUNCTION      0.00  1504.91     0  02:07           0        5.73       0.159
  YS02001629           JUNCTION      0.00   927.89     0  01:51           0        4.46       0.025
  YS02001633           JUNCTION   1365.25  1368.82     0  01:51        2.51        6.48       0.055
  YS02001641           JUNCTION      0.00  1368.29     0  01:51           0        5.99       0.050
  YS02001644           JUNCTION   1219.15  1887.95     0  02:02        2.18        8.16       0.041
  YS02001647           JUNCTION      0.00  1764.28     0  01:51           0        7.26       0.007
  YS02001649           JUNCTION      0.00  2014.72     0  01:52           0        9.28       0.006
  YS02001652           JUNCTION      0.00  1199.36     0  02:01           0        2.01      -0.048
  YS02001655           JUNCTION      0.15  1199.31     0  02:01     0.00439        2.01      -0.003
  YS02001658           JUNCTION      0.00  1199.34     0  02:01           0        2.01      -0.006
  YS02001661           JUNCTION      0.00  1199.10     0  02:01           0        2.01       0.012
  YS02001664           JUNCTION   1189.06  1189.06     0  02:02        2.01        2.01      -0.005
  YS02001745           JUNCTION    742.62   742.62     0  02:02         1.2         1.2       0.088
  YS02001748           JUNCTION      0.04   754.98     0  02:01     0.00128         1.2      -0.138
  YS02001751           JUNCTION      0.01   755.78     0  02:01    0.000313        1.21       0.025
  YS02001754           JUNCTION      0.26   755.89     0  02:01     0.00741        1.22      -0.090
  YS02001757           JUNCTION      0.00  3573.68     0  02:03           0        14.2       0.038
  YS02001759           JUNCTION   1032.46  1505.50     0  02:02        1.67        3.75      -0.004
  YS02001762           JUNCTION      0.00   825.81     0  02:10           0        2.09       0.013
  YS02001765           JUNCTION      0.00   826.85     0  02:10           0        2.09       0.012
  YS02001767           JUNCTION      0.54   826.74     0  02:10      0.0152        2.09       0.011
  YS02001770           JUNCTION   1473.51  1473.51     0  02:02        2.53        2.57      -0.003
  YS02001774           JUNCTION      0.00   850.14     0  02:03           0        0.49       0.266
  YS02001779           JUNCTION      0.01   850.16     0  02:03    0.000142       0.447      -0.055
  YS02001783           JUNCTION      0.00  1169.91     0  01:59           0        5.18       0.006
  YS02001784           JUNCTION      1.06  1170.80     0  01:59      0.0302        5.21       0.011
  YS02001786           JUNCTION      0.06  1171.17     0  01:59      0.0016        5.21       0.014
  YS02001788           JUNCTION      0.07  1171.78     0  01:59     0.00202        5.22       0.005
  YS02001790           JUNCTION      0.15  1188.37     0  02:00     0.00442        5.22       0.008
  YS02001791           JUNCTION      0.00  1297.03     0  02:01           0        5.22      -0.015
  YS02001793           JUNCTION      0.00  1273.17     0  02:00           0        5.22      -0.036
  YS02001882           JUNCTION      0.00    31.59     0  01:49           0      0.0134       6.017
  YS02001884           JUNCTION      0.00    46.72     0  01:48           0      0.0496       5.519
  YS02001887           JUNCTION   1109.35  1110.87     0  02:01        1.73        1.76       0.250
  YS02001890           JUNCTION      0.00  1111.72     0  02:01           0        1.72       0.305
  YS02001895           JUNCTION      0.00   518.39     0  02:02           0        1.45       0.130
  YS02001898           JUNCTION      0.00   517.97     0  02:02           0        1.45       0.015
  YS02001901           JUNCTION      0.00   517.63     0  02:02           0        1.45       0.238
  YS02001904           JUNCTION      0.00   517.93     0  02:02           0        1.46       0.199
  YS02001907           JUNCTION      0.00  2819.73     0  02:02           0        5.29       0.343
  YS02001910           JUNCTION      0.00  1963.85     0  02:02           0        3.75       0.194
  YS02001915           JUNCTION   1315.31  1963.19     0  02:02        2.41        3.78       0.047
  YS02001918           JUNCTION      0.00   653.49     0  02:03           0        1.39       0.028
  YS02001920           JUNCTION      2.87   652.71     0  02:03      0.0818        1.38       0.076
  YS02001923           JUNCTION      0.04   647.97     0  02:03     0.00107        1.29      -0.005
  YS02001926           JUNCTION      0.05   647.90     0  02:03     0.00149        1.27      -0.004
  YS02001929           JUNCTION    647.12   647.12     0  02:03        1.27        1.27      -0.036
  YS02006553           JUNCTION      0.00   796.72     0  02:25           0        2.88       0.415
  YS02006556           JUNCTION      0.00   795.69     0  02:25           0        2.89       0.301
  YS02006558           JUNCTION   1507.23  1507.23     0  02:02        2.53        5.31       0.066
  YS02006561           JUNCTION      0.00  1170.21     0  01:59           0        5.18      -0.002
  YS02163301           JUNCTION      0.00   928.23     0  01:51           0        4.46       0.043
  YS02163601           JUNCTION      0.11  1368.98     0  01:51     0.00313        5.98       0.087
  YS02164001           JUNCTION      0.00  1368.79     0  01:51           0        5.98       0.045
  CC-1                 OUTFALL       0.00   683.00     0  00:00           0        6.14       0.000
  CC-2                 OUTFALL       0.00   683.00     0  00:00           0        6.14       0.000
  JK-1                 OUTFALL       0.00  1000.00     0  00:00           0        1.78       0.000
  JK-2                 OUTFALL       0.00  1000.00     0  00:00           0        1.78       0.000
  WSC                  OUTFALL       0.00   555.10     0  03:18           0        5.77       0.000
  CC-storage           STORAGE       0.00  3572.55     0  02:03           0        16.5      -0.317
  JK-storage           STORAGE       0.00  1403.39     0  02:08           0        5.37      -1.357
  
  
  **********************
  Node Surcharge Summary
  **********************
  
  Surcharging occurs when water rises above the top of the highest conduit.
  ---------------------------------------------------------------------
                                               Max. Height   Min. Depth
                                   Hours       Above Crown    Below Rim
  Node                 Type      Surcharged         Meters       Meters
  ---------------------------------------------------------------------
  WS02004404           JUNCTION        0.01          0.056        2.724
  WS02006109           JUNCTION        2.36          0.537        1.283
  WS02006110           JUNCTION        0.53          0.543        1.307
  WS02006112           JUNCTION        1.65          0.140        1.540
  WS02006228           JUNCTION        2.33          0.438        1.762
  WS02006229           JUNCTION        2.37          0.445        2.005
  WS02006230           JUNCTION        0.60          0.412        1.158
  WS02006231           JUNCTION        1.28          1.458        0.072
  WS02006232           JUNCTION        2.44          1.480        0.000
  WS02006234           JUNCTION        1.79          1.240        0.000
  WS02006235           JUNCTION        2.06          1.290        0.000
  WS02006238           JUNCTION        2.28          1.430        0.000
  WS02006239           JUNCTION        2.28          1.290        0.000
  WS02006240           JUNCTION        2.35          1.390        0.000
  WS02006242           JUNCTION        2.46          0.820        0.000
  WS02006243           JUNCTION        2.36          0.770        0.000
  WS02006245           JUNCTION        2.36          0.850        0.000
  WS02006247           JUNCTION        2.38          0.760        0.000
  WS02006248           JUNCTION        2.34          0.380        0.000
  WS02006249           JUNCTION        2.37          0.390        0.000
  WS02006251           JUNCTION        1.71          0.454        0.726
  WS02006252           JUNCTION        2.86          1.100        0.000
  WS02006256           JUNCTION        5.88          2.050        0.000
  YS02001580           JUNCTION        0.93          0.450        0.000
  YS02001583           JUNCTION        0.93          0.500        0.000
  YS02001586           JUNCTION        1.05          0.510        0.000
  YS02001590           JUNCTION        1.14          0.750        0.000
  YS02001593           JUNCTION        1.14          0.708        0.132
  YS02001596           JUNCTION        1.29          1.070        0.000
  YS02001600           JUNCTION        1.46          1.190        0.000
  YS02001601           JUNCTION        1.75          1.440        0.000
  YS02001602           JUNCTION        1.66          1.270        0.000
  YS02001605           JUNCTION        1.61          1.180        0.000
  YS02001607           JUNCTION        1.07          0.680        0.000
  YS02001610           JUNCTION        1.10          0.680        0.000
  YS02001613           JUNCTION        1.06          0.700        0.000
  YS02001616           JUNCTION        1.01          0.610        0.000
  YS02001619           JUNCTION        0.99          0.610        0.000
  YS02001622           JUNCTION        0.98          0.595        0.025
  YS02001625           JUNCTION        1.22          0.780        0.000
  YS02001629           JUNCTION        0.87          0.470        0.000
  YS02001633           JUNCTION        1.23          1.053        0.007
  YS02001641           JUNCTION        1.10          1.036        0.064
  YS02001644           JUNCTION        1.04          0.920        0.000
  YS02001647           JUNCTION        0.73          0.763        0.137
  YS02001649           JUNCTION        0.84          1.001        0.049
  YS02001652           JUNCTION        0.60          0.829        0.301
  YS02001655           JUNCTION        0.42          1.200        0.000
  YS02001658           JUNCTION        0.30          0.466        0.834
  YS02001661           JUNCTION        0.12          0.203        1.187
  YS02001748           JUNCTION        0.20          0.424        0.766
  YS02001751           JUNCTION        0.33          0.517        0.683
  YS02001754           JUNCTION        0.43          0.679        0.471
  YS02001757           JUNCTION        0.87          1.037        0.173
  YS02001759           JUNCTION        0.75          1.057        0.153
  YS02001762           JUNCTION        0.71          1.024        0.126
  YS02001765           JUNCTION        0.66          1.005        0.095
  YS02001767           JUNCTION        0.61          0.989        0.041
  YS02001770           JUNCTION        0.59          0.920        0.000
  YS02001774           JUNCTION        0.70          1.050        0.000
  YS02001779           JUNCTION        0.46          0.680        0.000
  YS02001783           JUNCTION        0.78          0.503        1.097
  YS02001784           JUNCTION        0.75          0.377        1.113
  YS02001786           JUNCTION        0.62          0.112        1.318
  YS02001882           JUNCTION        0.71          0.713        0.117
  YS02001884           JUNCTION        0.72          0.738        0.132
  YS02001887           JUNCTION        0.77          0.811        0.139
  YS02001890           JUNCTION        0.79          0.760        0.000
  YS02001895           JUNCTION        0.70          0.646        0.104
  YS02001898           JUNCTION        0.69          0.603        0.137
  YS02001901           JUNCTION        0.75          0.870        0.000
  YS02001904           JUNCTION        0.74          0.656        0.194
  YS02001907           JUNCTION        1.07          0.950        0.000
  YS02001910           JUNCTION        0.82          1.009        0.091
  YS02001915           JUNCTION        0.71          1.000        0.000
  YS02001918           JUNCTION        0.60          0.810        0.000
  YS02001920           JUNCTION        0.62          1.059        0.081
  YS02001923           JUNCTION        0.22          0.752        0.068
  YS02001926           JUNCTION        0.28          0.860        0.040
  YS02001929           JUNCTION        0.11          0.780        0.000
  YS02006553           JUNCTION        1.09          1.063        0.127
  YS02006556           JUNCTION        0.94          1.097        0.253
  YS02006558           JUNCTION        0.93          1.054        0.346
  YS02006561           JUNCTION        0.56          0.223        0.927
  YS02163301           JUNCTION        1.20          0.962        0.068
  YS02163601           JUNCTION        1.27          1.080        0.000
  YS02164001           JUNCTION        1.11          1.070        0.030
  
  
  *********************
  Node Flooding Summary
  *********************
  
  Flooding refers to all water that overflows a node, whether it ponds or not.
  --------------------------------------------------------------------------
                                                             Total   Maximum
                                 Maximum   Time of Max       Flood    Ponded
                        Hours       Rate    Occurrence      Volume     Depth
  Node                 Flooded       LPS   days hr:min    10^6 ltr    Meters
  --------------------------------------------------------------------------
  WS02006232              0.01     30.19      0  02:10       0.000     0.000
  WS02006234              0.01    150.49      0  02:34       0.001     0.000
  WS02006235              0.01     48.18      0  02:10       0.000     0.000
  WS02006238              0.01     36.95      0  02:10       0.000     0.000
  WS02006239              0.01      7.47      0  01:58       0.000     0.000
  WS02006240              0.01      5.73      0  02:10       0.000     0.000
  WS02006242              0.03     89.17      0  01:45       0.001     0.000
  WS02006243              0.01     95.85      0  01:45       0.000     0.000
  WS02006245              0.01      4.36      0  02:10       0.000     0.000
  WS02006247              0.01    130.12      0  01:44       0.000     0.000
  WS02006248              0.25     32.55      0  01:55       0.014     0.000
  WS02006249              1.50     84.70      0  03:21       0.251     0.000
  WS02006252              0.01    249.44      0  01:43       0.000     0.000
  WS02006256              1.76    297.60      0  01:54       0.706     0.000
  YS02001580              0.01     46.43      0  01:47       0.000     0.000
  YS02001583              0.01     97.95      0  01:46       0.000     0.000
  YS02001586              0.75    734.24      0  02:04       0.837     0.000
  YS02001590              0.01      0.08      0  02:19       0.000     0.000
  YS02001596              0.01      0.21      0  02:10       0.000     0.000
  YS02001600              0.01      4.14      0  02:10       0.000     0.000
  YS02001601              0.95   1733.64      0  02:02       2.339     0.000
  YS02001602              0.73     62.01      0  02:11       0.151     0.000
  YS02001605              0.01      2.25      0  02:10       0.000     0.000
  YS02001607              0.01      0.11      0  02:19       0.000     0.000
  YS02001610              0.65    953.87      0  02:05       1.266     0.000
  YS02001613              0.01     23.84      0  02:19       0.000     0.000
  YS02001616              0.09     34.55      0  02:10       0.001     0.000
  YS02001619              0.14    203.87      0  02:03       0.058     0.000
  YS02001625              0.56   1504.77      0  02:07       1.757     0.000
  YS02001629              0.26    265.74      0  02:02       0.118     0.000
  YS02001644              0.28   1762.51      0  02:02       0.888     0.000
  YS02001655              0.01    204.56      0  01:53       0.000     0.000
  YS02001770              0.07    163.12      0  02:01       0.024     0.000
  YS02001774              0.01     12.26      0  02:10       0.000     0.000
  YS02001779              0.25    850.08      0  02:03       0.428     0.000
  YS02001890              0.29    594.54      0  02:01       0.263     0.000
  YS02001901              0.01      0.53      0  02:19       0.000     0.000
  YS02001907              0.54   2818.93      0  02:02       2.494     0.000
  YS02001915              0.01      0.86      0  02:02       0.000     0.000
  YS02001918              0.01     84.54      0  01:52       0.000     0.000
  YS02001929              0.01    166.56      0  01:52       0.000     0.000
  YS02163601              0.01     22.46      0  02:10       0.000     0.000
  
  
  **********************
  Storage Volume Summary
  **********************
  
  ------------------------------------------------------------------------------------------------
                         Average    Avg   Evap  Exfil     Maximum    Max    Time of Max    Maximum
                          Volume   Pcnt   Pcnt   Pcnt      Volume   Pcnt     Occurrence    Outflow
  Storage Unit           1000 m³   Full   Loss   Loss     1000 m³   Full    days hr:min        LPS
  ------------------------------------------------------------------------------------------------
  CC-storage               1.204   18.8    0.0    0.0       3.670   57.3       0  02:47    1783.53
  JK-storage               0.007    2.4    0.0    0.0       0.150   51.6       0  00:00    2300.00
  
  
  ***********************
  Outfall Loading Summary
  ***********************
  
  -----------------------------------------------------------
                         Flow       Avg       Max       Total
                         Freq      Flow      Flow      Volume
  Outfall Node           Pcnt       LPS       LPS    10^6 ltr
  -----------------------------------------------------------
  CC-1                  53.78    683.00    683.00       6.139
  CC-2                  53.78    683.00    683.00       6.139
  JK-1                  11.46    999.67   1000.00       1.775
  JK-2                  11.46    999.67   1000.00       1.775
  WSC                   99.94    289.40    555.10       5.768
  -----------------------------------------------------------
  System                46.08   3654.74   3899.58      21.595
  
  
  ********************
  Link Flow Summary
  ********************
  
  -----------------------------------------------------------------------------
                                 Maximum  Time of Max   Maximum    Max/    Max/
                                  |Flow|   Occurrence   |Veloc|    Full    Full
  Link                 Type          LPS  days hr:min     m/sec    Flow   Depth
  -----------------------------------------------------------------------------
  1                    CONDUIT    555.10     0  03:18      2.83    0.19    0.30
  WS02003060WS02003069 CONDUIT    553.21     0  03:16      1.64    0.22    0.34
  WS02003066WSF200     CONDUIT    536.73     0  03:16      2.85    0.09    0.22
  WS02003067WS02003066 CONDUIT    536.72     0  03:16      1.21    0.17    0.42
  WS02003069WS02003072 CONDUIT    553.48     0  03:17      1.37    0.27    0.39
  WS02003072WS02003073 CONDUIT    553.43     0  03:18      1.44    1.20    0.37
  WS02004401WS02004402 CONDUIT    545.83     0  03:14      1.22    0.66    0.89
  WS02004402WS02004403 CONDUIT    547.93     0  03:14      1.24    0.79    0.92
  WS02004403WS02004404 CONDUIT    553.55     0  03:13      1.24    0.40    0.96
  WS02004404WS02004405 CONDUIT    610.34     0  03:14      1.45    5.98    0.98
  WS02004405WS02004406 CONDUIT    546.81     0  03:14      1.46    1.08    0.96
  WS02004406WS02004407 CONDUIT    539.42     0  03:14      1.04    0.24    0.63
  WS02004407WS02004409 CONDUIT    538.39     0  03:14      1.64    0.19    0.48
  WS02004409WS02004410 CONDUIT    537.44     0  03:15      1.06    0.70    0.67
  WS02004410WS02004411 CONDUIT    537.22     0  03:15      1.12    0.73    0.69
  WS02004411WS02004412 CONDUIT    536.89     0  03:16      1.22    0.76    0.69
  WS02004412WS02004413 CONDUIT    536.94     0  03:16      1.22    0.36    0.78
  WS02004413WS02003067 CONDUIT    536.74     0  03:16      1.11    0.23    0.59
  WS02006109WS02006110 CONDUIT    559.57     0  02:56      1.11    1.08    1.00
  WS02006110WS02006113 CONDUIT    572.97     0  02:51      1.37    0.52    0.79
  WS02006111WS02006112 CONDUIT    543.00     0  03:12      1.95    0.26    0.67
  WS02006112WS02006115 CONDUIT    552.91     0  01:41      0.88    0.33    0.88
  WS02006113WS02006111 CONDUIT    561.65     0  03:04      2.48    0.67    0.46
  WS02006115WS02006116 CONDUIT    538.38     0  03:07      1.29    0.69    0.78
  WS02006116WS02004401 CONDUIT    541.39     0  03:17      1.21    0.75    0.87
  WS02006228WS02006109 CONDUIT    557.56     0  02:51      1.11    2.44    1.00
  WS02006229WS02006228 CONDUIT    558.02     0  02:51      1.12    1.85    1.00
  WS02006230WS02006229 CONDUIT    558.48     0  02:51      1.45   12.43    1.00
  WS02006231WS02006230 CONDUIT    586.84     0  03:02      1.60    8.90    1.00
  WS02006232WS02006231 CONDUIT    598.62     0  01:46      1.57    1.25    1.00
  WS02006234WS02006232 CONDUIT    597.51     0  01:46      1.55    1.21    1.00
  WS02006235WS02006234 CONDUIT    590.66     0  01:46      1.53    6.23    1.00
  WS02006238WS02006235 CONDUIT    424.16     0  03:19      1.45    0.95    1.00
  WS02006239WS02006238 CONDUIT    426.21     0  02:42      1.12    1.36    1.00
  WS02006240WS02006239 CONDUIT    424.04     0  02:42      1.33    1.33    1.00
  WS02006242WS02006240 CONDUIT    420.65     0  02:42      1.17    1.67    1.00
  WS02006243WS02006242 CONDUIT    420.57     0  03:16      1.41    0.90    1.00
  WS02006245WS02006243 CONDUIT    421.64     0  02:42      1.44    1.25    1.00
  WS02006247WS02006245 CONDUIT    486.09     0  01:44      1.43    3.85    1.00
  WS02006248WS02006247 CONDUIT    442.03     0  01:44      1.45    0.96    1.00
  WS02006249WS02006248 CONDUIT    447.40     0  01:44      1.38    2.45    1.00
  WS02006251WS02006249 CONDUIT    492.06     0  01:44      1.99    1.42    1.00
  WS02006252WS02006251 CONDUIT    408.07     0  03:41     24.95    1.50    1.00
  WS02006256WS02006235 CONDUIT    288.91     0  00:00      4.23    3.06    1.00
  WSF200WS02003060     CONDUIT    536.80     0  03:17      2.06    0.12    0.28
  YS02001580YS02001583 CONDUIT     75.77     0  01:46      0.55    0.29    1.00
  YS02001583YS02001586 CONDUIT    125.22     0  01:46      0.53    0.19    1.00
  YS02001586YS02001590 CONDUIT    320.12     0  02:19      1.28    0.56    1.00
  YS02001590YS02001593 CONDUIT    321.65     0  02:19      1.14    2.02    1.00
  YS02001593YS02001596 CONDUIT    318.06     0  02:05      1.77    0.50    1.00
  YS02001596YS02001600 CONDUIT    318.16     0  02:19      1.27    0.62    1.00
  YS02001600YS02001601 CONDUIT    318.49     0  02:19      1.13    0.55    1.00
  YS02001601YS02001602 CONDUIT    499.83     0  01:46      1.77    1.81    1.00
  YS02001602YS02001605 CONDUIT    499.13     0  01:46      1.77   10.56    1.00
  YS02001605YS02001607 CONDUIT    498.02     0  01:46      1.76    2.73    1.00
  YS02001607YS02001610 CONDUIT    500.44     0  01:45      0.64    0.48    1.00
  YS02001610YS02001613 CONDUIT    617.96     0  02:07      0.79    0.71    1.00
  YS02001613YS02001616 CONDUIT    618.12     0  02:07      0.79    0.53    1.00
  YS02001616YS02001619 CONDUIT    617.97     0  02:05      0.79    1.07    1.00
  YS02001619YS02001622 CONDUIT   1053.73     0  02:06      1.34    1.55    1.00
  YS02001622YS02001625 CONDUIT   1053.65     0  02:05      1.34    0.56    1.00
  YS02001625YS02001629 CONDUIT    927.89     0  01:51      1.18    0.44    1.00
  YS02001629YS02163301 CONDUIT    928.23     0  01:51      1.18    1.14    1.00
  YS02001633YS02163601 CONDUIT   1368.87     0  01:51      1.74    1.44    1.00
  YS02001641YS02001644 CONDUIT   1368.11     0  01:51      1.74    4.42    1.00
  YS02001644YS02001647 CONDUIT   1764.28     0  01:51      2.25    1.04    1.00
  YS02001647YS02001649 CONDUIT   1765.77     0  01:51      2.30    0.93    1.00
  YS02001649YS02001757 CONDUIT   2012.80     0  01:52      2.56    1.22    1.00
  YS02001652YS02001649 CONDUIT   1199.94     0  02:01      1.53    0.59    1.00
  YS02001655YS02001652 CONDUIT   1199.36     0  02:01      1.53    0.58    1.00
  YS02001658YS02001655 CONDUIT   1199.16     0  02:01      1.82    0.51    1.00
  YS02001661YS02001658 CONDUIT   1199.34     0  02:01      2.28    0.47    1.00
  YS02001664YS02001661 CONDUIT   1199.10     0  02:01      2.26    0.38    0.88
  YS02001745YS02001748 CONDUIT    754.93     0  02:01      2.13    0.29    0.95
  YS02001748YS02001751 CONDUIT    755.77     0  02:01      1.64    0.38    1.00
  YS02001751YS02001754 CONDUIT    755.63     0  02:01      1.36    0.36    1.00
  YS02001754YS02001757 CONDUIT    756.12     0  02:01      0.96    0.30    1.00
  YS02001757CaochengTiaoxuchi CONDUIT   3572.55     0  02:03      6.67    1.55    1.00
  YS02001759YS02001757 CONDUIT   1505.68     0  02:03      1.92    1.07    1.00
  YS02001762YS02001759 CONDUIT    825.78     0  02:10      1.05    0.95    1.00
  YS02001765YS02001762 CONDUIT    825.81     0  02:10      1.05    0.77    1.00
  YS02001767YS02001765 CONDUIT    826.85     0  02:10      1.05    1.04    1.00
  YS02001770YS02001767 CONDUIT    826.20     0  02:10      1.05    3.27    1.00
  YS02001774YS02001770 CONDUIT    850.14     0  02:03      1.08    0.54    1.00
  YS02001779YS02001774 CONDUIT    850.16     0  02:03      1.08    0.43    1.00
  YS02001783YS02001784 CONDUIT   1169.74     0  01:59      2.33    1.61    1.00
  YS02001784YS02001785 CONDUIT   1171.11     0  01:59      2.33    2.73    1.00
  YS02001786YS02001788 CONDUIT   1171.71     0  01:59      2.49    2.26    0.89
  YS02001788YS02001790 CONDUIT   1188.22     0  02:00      2.73    0.88    0.85
  YS02001790YS02001791 CONDUIT   1297.03     0  02:01      3.44    1.41    0.71
  YS02001791YS02001793 CONDUIT   1273.17     0  02:00      6.77    0.55    0.44
  YS02001793JiankangQianchi CONDUIT   1403.39     0  02:08     21.84    0.11    0.50
  YS02001882YS02001884 CONDUIT     31.59     0  01:49      0.17    0.04    1.00
  YS02001884YS02001887 CONDUIT     46.72     0  01:48      0.13    0.06    1.00
  YS02001887YS02001890 CONDUIT   1111.72     0  02:01      1.42    1.90    1.00
  YS02001890YS02001895 CONDUIT    518.39     0  02:02      0.66    0.24    1.00
  YS02001895YS02001898 CONDUIT    517.97     0  02:02      0.66    0.90    1.00
  YS02001898YS02001901 CONDUIT    517.63     0  02:02      0.66    0.33    1.00
  YS02001901YS02001904 CONDUIT    517.93     0  02:02      0.66    0.80    1.00
  YS02001904YS02001907 CONDUIT    520.13     0  02:02      0.66    0.18    1.00
  YS02001907YS02006553 CONDUIT    796.72     0  02:25      0.89    0.94    1.00
  YS02001910YS02001907 CONDUIT   1964.72     0  02:02      2.50    1.11    1.00
  YS02001915YS02001910 CONDUIT   1963.85     0  02:02      2.50    0.98    1.00
  YS02001918YS02001915 CONDUIT    654.42     0  02:03      0.83    0.36    1.00
  YS02001920YS02001918 CONDUIT    653.49     0  02:03      0.83    0.63    1.00
  YS02001923YS02001920 CONDUIT    649.84     0  02:03      0.83    0.29    1.00
  YS02001926YS02001923 CONDUIT    647.94     0  02:03      0.94    0.93    1.00
  YS02001929YS02001926 CONDUIT    647.85     0  02:03      1.08    0.31    1.00
  YS02006553YS02006556 CONDUIT    795.69     0  02:25      1.01    0.68    1.00
  YS02006556YS02006558 CONDUIT    796.90     0  02:25      1.01    0.63    1.00
  YS02006558YS02006561 CONDUIT   1170.21     0  01:59      4.14    2.59    1.00
  YS02006561YS02001783 CONDUIT   1169.91     0  01:59      2.33    0.61    1.00
  YS02163301YS02001633 CONDUIT    928.33     0  01:51      1.18    0.87    1.00
  YS02163601YS02164001 CONDUIT   1368.79     0  01:51      1.74    1.21    1.00
  YS02164001YS02001641 CONDUIT   1368.29     0  01:51      1.74    1.87    1.00
  CC-R1                PUMP       683.00     0  00:00              1.00
  CC-R2                PUMP       683.00     0  00:00              1.00
  CC-S1                PUMP       200.00     0  00:00              1.00
  CC-S2                PUMP       200.00     0  00:00              1.00
  JK-R1                PUMP      1000.00     0  00:00              1.00
  JK-R2                PUMP      1000.00     0  00:00              1.00
  JK-S                 PUMP       300.00     0  00:00              1.00
  
  
  ***************************
  Flow Classification Summary
  ***************************
  
  -------------------------------------------------------------------------------------
                      Adjusted    ---------- Fraction of Time in Flow Class ---------- 
                       /Actual         Up    Down  Sub   Sup   Up    Down  Norm  Inlet 
  Conduit               Length    Dry  Dry   Dry   Crit  Crit  Crit  Crit  Ltd   Ctrl  
  -------------------------------------------------------------------------------------
  1                       1.00   0.00  0.00  0.00  0.00  1.00  0.00  0.00  0.34  0.00
  WS02003060WS02003069    1.00   0.00  0.00  0.00  0.97  0.03  0.00  0.00  0.67  0.00
  WS02003066WSF200        1.00   0.05  0.00  0.00  0.00  0.95  0.00  0.00  0.81  0.00
  WS02003067WS02003066    1.00   0.05  0.00  0.00  0.95  0.00  0.00  0.00  0.00  0.00
  WS02003069WS02003072    1.00   0.00  0.00  0.00  0.99  0.01  0.00  0.00  0.70  0.00
  WS02003072WS02003073    1.00   0.00  0.00  0.00  0.00  0.00  0.00  1.00  0.00  0.00
  WS02004401WS02004402    1.00   0.02  0.00  0.00  0.98  0.00  0.00  0.00  0.00  0.00
  WS02004402WS02004403    1.00   0.02  0.00  0.00  0.98  0.00  0.00  0.00  0.00  0.00
  WS02004403WS02004404    1.00   0.00  0.03  0.00  0.97  0.00  0.00  0.00  0.00  0.00
  WS02004404WS02004405    1.00   0.00  0.00  0.00  1.00  0.00  0.00  0.00  0.01  0.00
  WS02004405WS02004406    1.00   0.00  0.00  0.00  1.00  0.00  0.00  0.00  0.00  0.00
  WS02004406WS02004407    1.00   0.00  0.03  0.00  0.97  0.00  0.00  0.00  0.00  0.00
  WS02004407WS02004409    1.00   0.03  0.00  0.00  0.95  0.01  0.00  0.00  0.95  0.00
  WS02004409WS02004410    1.00   0.03  0.00  0.00  0.96  0.00  0.00  0.00  0.00  0.00
  WS02004410WS02004411    1.00   0.04  0.00  0.00  0.96  0.00  0.00  0.00  0.00  0.00
  WS02004411WS02004412    1.00   0.04  0.00  0.00  0.96  0.00  0.00  0.00  0.00  0.00
  WS02004412WS02004413    1.00   0.04  0.00  0.00  0.96  0.00  0.00  0.00  0.00  0.00
  WS02004413WS02003067    1.00   0.04  0.01  0.00  0.00  0.00  0.95  0.00  0.00  0.00
  WS02006109WS02006110    1.00   0.00  0.01  0.00  0.98  0.00  0.01  0.00  0.00  0.00
  WS02006110WS02006113    1.00   0.01  0.01  0.00  0.98  0.00  0.00  0.00  0.00  0.00
  WS02006111WS02006112    1.00   0.02  0.00  0.00  0.98  0.00  0.00  0.00  0.98  0.00
  WS02006112WS02006115    1.00   0.02  0.00  0.00  0.97  0.00  0.00  0.00  0.00  0.00
  WS02006113WS02006111    1.00   0.02  0.00  0.00  0.00  0.98  0.00  0.00  0.15  0.00
  WS02006115WS02006116    1.00   0.02  0.00  0.00  0.97  0.00  0.00  0.01  0.00  0.00
  WS02006116WS02004401    1.00   0.02  0.00  0.00  0.98  0.00  0.00  0.00  0.00  0.00
  WS02006228WS02006109    1.00   0.00  0.00  0.00  1.00  0.00  0.00  0.00  0.01  0.00
  WS02006229WS02006228    1.00   0.00  0.00  0.00  0.99  0.00  0.00  0.01  0.00  0.00
  WS02006230WS02006229    1.00   0.00  0.00  0.00  0.99  0.00  0.00  0.01  0.02  0.00
  WS02006231WS02006230    1.00   0.00  0.00  0.00  0.32  0.00  0.68  0.00  0.00  0.00
  WS02006232WS02006231    1.00   0.00  0.00  0.00  0.98  0.00  0.02  0.00  0.00  0.00
  WS02006234WS02006232    1.00   0.00  0.00  0.00  1.00  0.00  0.00  0.00  0.04  0.00
  WS02006235WS02006234    1.00   0.00  0.00  0.00  0.93  0.00  0.07  0.00  0.00  0.00
  WS02006238WS02006235    1.00   0.00  0.00  0.00  1.00  0.00  0.00  0.00  0.00  0.00
  WS02006239WS02006238    1.00   0.00  0.00  0.00  1.00  0.00  0.00  0.00  0.23  0.00
  WS02006240WS02006239    1.00   0.00  0.00  0.00  0.66  0.00  0.00  0.34  0.04  0.00
  WS02006242WS02006240    1.00   0.00  0.00  0.00  0.99  0.00  0.01  0.00  0.02  0.00
  WS02006243WS02006242    1.00   0.00  0.00  0.00  0.99  0.00  0.00  0.01  0.57  0.00
  WS02006245WS02006243    1.00   0.00  0.00  0.00  0.60  0.00  0.00  0.40  0.01  0.00
  WS02006247WS02006245    1.00   0.00  0.00  0.00  0.99  0.00  0.00  0.01  0.00  0.00
  WS02006248WS02006247    1.00   0.00  0.00  0.00  0.99  0.00  0.00  0.01  0.22  0.00
  WS02006249WS02006248    1.00   0.00  0.00  0.00  0.42  0.00  0.58  0.00  0.00  0.00
  WS02006251WS02006249    1.00   0.00  0.00  0.00  1.00  0.00  0.00  0.00  0.59  0.00
  WS02006252WS02006251    1.00   0.00  0.52  0.00  0.21  0.00  0.27  0.00  0.00  0.00
  WS02006256WS02006235    1.00   0.00  0.00  0.00  0.98  0.02  0.00  0.00  0.00  0.00
  WSF200WS02003060        1.00   0.00  0.05  0.00  0.36  0.59  0.00  0.00  0.62  0.00
  YS02001580YS02001583    1.00   0.22  0.54  0.00  0.24  0.00  0.00  0.00  0.64  0.00
  YS02001583YS02001586    1.00   0.40  0.31  0.00  0.29  0.00  0.00  0.00  0.64  0.00
  YS02001586YS02001590    1.00   0.13  0.00  0.00  0.46  0.04  0.00  0.37  0.35  0.00
  YS02001590YS02001593    1.00   0.13  0.01  0.00  0.16  0.00  0.70  0.00  0.00  0.00
  YS02001593YS02001596    1.00   0.13  0.00  0.00  0.18  0.01  0.00  0.67  0.02  0.00
  YS02001596YS02001600    1.00   0.13  0.00  0.00  0.24  0.01  0.00  0.62  0.04  0.00
  YS02001600YS02001601    1.00   0.13  0.01  0.00  0.86  0.00  0.00  0.00  0.57  0.00
  YS02001601YS02001602    1.00   0.13  0.01  0.00  0.87  0.00  0.00  0.00  0.00  0.00
  YS02001602YS02001605    1.00   0.13  0.00  0.00  0.87  0.00  0.00  0.00  0.00  0.00
  YS02001605YS02001607    1.00   0.14  0.00  0.00  0.86  0.00  0.00  0.00  0.00  0.00
  YS02001607YS02001610    1.00   0.13  0.00  0.00  0.86  0.00  0.00  0.00  0.01  0.00
  YS02001610YS02001613    1.00   0.13  0.00  0.00  0.87  0.00  0.00  0.00  0.00  0.00
  YS02001613YS02001616    1.00   0.13  0.00  0.00  0.87  0.00  0.00  0.00  0.00  0.00
  YS02001616YS02001619    1.00   0.13  0.00  0.00  0.87  0.00  0.00  0.00  0.00  0.00
  YS02001619YS02001622    1.00   0.13  0.00  0.00  0.87  0.00  0.00  0.00  0.26  0.00
  YS02001622YS02001625    1.00   0.13  0.00  0.00  0.87  0.00  0.00  0.00  0.03  0.00
  YS02001625YS02001629    1.00   0.13  0.04  0.00  0.20  0.00  0.63  0.00  0.00  0.00
  YS02001629YS02163301    1.00   0.14  0.01  0.00  0.85  0.00  0.00  0.00  0.00  0.00
  YS02001633YS02163601    1.00   0.00  0.01  0.00  0.99  0.00  0.00  0.00  0.14  0.00
  YS02001641YS02001644    1.00   0.00  0.01  0.00  0.99  0.00  0.00  0.00  0.00  0.00
  YS02001644YS02001647    1.00   0.00  0.16  0.00  0.84  0.00  0.00  0.00  0.00  0.00
  YS02001647YS02001649    1.00   0.00  0.16  0.00  0.54  0.30  0.00  0.00  0.55  0.00
  YS02001649YS02001757    1.00   0.00  0.00  0.00  0.81  0.19  0.00  0.00  0.60  0.00
  YS02001652YS02001649    1.00   0.00  0.00  0.00  0.97  0.03  0.00  0.00  0.71  0.00
  YS02001655YS02001652    1.00   0.00  0.00  0.00  0.22  0.01  0.00  0.77  0.07  0.00
  YS02001658YS02001655    1.00   0.00  0.14  0.00  0.66  0.20  0.00  0.00  0.67  0.00
  YS02001661YS02001658    1.00   0.14  0.00  0.00  0.48  0.38  0.00  0.00  0.70  0.00
  YS02001664YS02001661    1.00   0.13  0.00  0.00  0.71  0.16  0.00  0.00  0.84  0.00
  YS02001745YS02001748    1.00   0.00  0.00  0.00  0.09  0.01  0.00  0.89  0.06  0.00
  YS02001748YS02001751    1.00   0.00  0.00  0.00  0.81  0.19  0.00  0.00  0.78  0.00
  YS02001751YS02001754    1.00   0.00  0.00  0.00  0.18  0.01  0.00  0.82  0.04  0.00
  YS02001754YS02001757    1.00   0.00  0.00  0.00  1.00  0.00  0.00  0.00  0.80  0.00
  YS02001757CaochengTiaoxuchi    1.00   0.00  0.00  0.00  0.30  0.70  0.00  0.00  0.27  0.00
  YS02001759YS02001757    1.00   0.00  0.00  0.00  1.00  0.00  0.00  0.00  0.62  0.00
  YS02001762YS02001759    1.00   0.00  0.00  0.00  1.00  0.00  0.00  0.00  0.05  0.00
  YS02001765YS02001762    1.00   0.00  0.00  0.00  1.00  0.00  0.00  0.00  0.70  0.00
  YS02001767YS02001765    1.00   0.00  0.00  0.00  1.00  0.00  0.00  0.00  0.00  0.00
  YS02001770YS02001767    1.00   0.00  0.00  0.00  1.00  0.00  0.00  0.00  0.00  0.00
  YS02001774YS02001770    1.00   0.00  0.13  0.00  0.72  0.00  0.15  0.00  0.02  0.00
  YS02001779YS02001774    1.00   0.00  0.00  0.00  1.00  0.00  0.00  0.00  0.76  0.00
  YS02001783YS02001784    1.00   0.00  0.17  0.00  0.83  0.00  0.00  0.00  0.54  0.00
  YS02001784YS02001785    1.00   0.00  0.00  0.00  1.00  0.00  0.00  0.00  0.15  0.00
  YS02001786YS02001788    1.00   0.00  0.00  0.00  0.79  0.21  0.00  0.00  0.00  0.00
  YS02001788YS02001790    1.00   0.00  0.00  0.00  0.21  0.79  0.00  0.00  0.77  0.00
  YS02001790YS02001791    1.00   0.00  0.00  0.00  0.01  0.99  0.00  0.00  0.16  0.00
  YS02001791YS02001793    1.00   0.00  0.00  0.00  0.00  1.00  0.00  0.00  0.01  0.00
  YS02001793JiankangQianchi    1.00   0.00  0.00  0.00  0.41  0.59  0.00  0.00  0.83  0.00
  YS02001882YS02001884    1.00   0.15  0.01  0.00  0.85  0.00  0.00  0.00  0.00  0.00
  YS02001884YS02001887    1.00   0.06  0.05  0.00  0.89  0.00  0.00  0.00  0.00  0.00
  YS02001887YS02001890    1.00   0.00  0.00  0.00  0.97  0.00  0.03  0.00  0.00  0.00
  YS02001890YS02001895    1.00   0.00  0.15  0.00  0.85  0.00  0.00  0.00  0.00  0.00
  YS02001895YS02001898    1.00   0.15  0.00  0.00  0.83  0.00  0.01  0.00  0.00  0.00
  YS02001898YS02001901    1.00   0.16  0.00  0.00  0.84  0.00  0.00  0.00  0.01  0.00
  YS02001901YS02001904    1.00   0.16  0.00  0.00  0.84  0.00  0.00  0.00  0.00  0.00
  YS02001904YS02001907    1.00   0.00  0.15  0.00  0.84  0.00  0.00  0.00  0.00  0.00
  YS02001907YS02006553    1.00   0.00  0.02  0.00  0.98  0.00  0.00  0.00  0.00  0.00
  YS02001910YS02001907    1.00   0.00  0.00  0.00  0.97  0.00  0.00  0.03  0.12  0.00
  YS02001915YS02001910    1.00   0.00  0.00  0.00  0.97  0.03  0.00  0.00  0.13  0.00
  YS02001918YS02001915    1.00   0.00  0.01  0.00  0.98  0.02  0.00  0.00  0.70  0.00
  YS02001920YS02001918    1.00   0.00  0.01  0.00  0.99  0.00  0.00  0.00  0.00  0.00
  YS02001923YS02001920    1.00   0.00  0.00  0.00  1.00  0.00  0.00  0.00  0.89  0.00
  YS02001926YS02001923    1.00   0.00  0.07  0.00  0.09  0.00  0.84  0.00  0.00  0.00
  YS02001929YS02001926    1.00   0.00  0.13  0.00  0.87  0.00  0.00  0.00  0.79  0.00
  YS02006553YS02006556    1.00   0.01  0.00  0.00  0.99  0.00  0.00  0.00  0.03  0.00
  YS02006556YS02006558    1.00   0.00  0.00  0.00  1.00  0.00  0.00  0.00  0.00  0.00
  YS02006558YS02006561    1.00   0.17  0.00  0.00  0.08  0.75  0.00  0.00  0.17  0.00
  YS02006561YS02001783    1.00   0.17  0.00  0.00  0.13  0.71  0.00  0.00  0.64  0.00
  YS02163301YS02001633    1.00   0.00  0.14  0.00  0.86  0.00  0.00  0.00  0.00  0.00
  YS02163601YS02164001    1.00   0.00  0.08  0.00  0.92  0.00  0.00  0.00  0.00  0.00
  YS02164001YS02001641    1.00   0.01  0.08  0.00  0.92  0.00  0.00  0.00  0.05  0.00
  
  
  *************************
  Conduit Surcharge Summary
  *************************
  
  ----------------------------------------------------------------------------
                                                           Hours        Hours 
                         --------- Hours Full --------   Above Full   Capacity
  Conduit                Both Ends  Upstream  Dnstream   Normal Flow   Limited
  ----------------------------------------------------------------------------
  WS02003072WS02003073        0.01      0.01      0.01      2.00         0.01
  WS02004403WS02004404        0.01      0.01      0.01      0.01         0.01
  WS02004404WS02004405        0.01      0.01      0.01      3.38         0.01
  WS02004405WS02004406        0.01      0.01      0.01      1.23         0.01
  WS02006109WS02006110        0.51      0.51      2.43      0.81         0.01
  WS02006110WS02006113        0.01      0.01      2.42      0.01         0.01
  WS02006111WS02006112        0.01      0.01      2.49      0.01         0.01
  WS02006112WS02006115        0.01      0.01      1.65      0.01         0.01
  WS02006228WS02006109        2.36      2.43      2.36      2.78         2.36
  WS02006229WS02006228        2.33      2.37      2.33      2.60         2.30
  WS02006230WS02006229        2.49      2.53      2.49      3.82         2.49
  WS02006231WS02006230        0.60      0.60      1.57      3.39         0.01
  WS02006232WS02006231        1.27      1.27      2.44      1.37         0.01
  WS02006234WS02006232        2.09      2.09      2.44      1.30         1.15
  WS02006235WS02006234        1.72      1.79      2.04      3.22         0.14
  WS02006238WS02006235        2.14      2.14      2.45      0.01         0.08
  WS02006239WS02006238        2.27      2.44      2.28      2.58         1.84
  WS02006240WS02006239        2.27      2.38      2.28      2.58         1.78
  WS02006242WS02006240        2.35      2.35      2.50      2.73         0.03
  WS02006243WS02006242        2.38      2.38      2.46      0.01         0.35
  WS02006245WS02006243        2.35      2.37      2.36      2.22         1.45
  WS02006247WS02006245        2.36      2.40      2.36      2.87         2.17
  WS02006248WS02006247        2.36      2.36      2.38      0.01         0.41
  WS02006249WS02006248        2.34      2.34      2.36      2.85         0.01
  WS02006251WS02006249        2.36      2.38      2.36      2.78         2.05
  WS02006252WS02006251        2.86      2.86      2.86      2.86         0.01
  WS02006256WS02006235        3.03      3.31      5.68      1.78         0.02
  YS02001580YS02001583        0.93      0.93      0.96      0.01         0.01
  YS02001583YS02001586        0.93      0.93      1.05      0.01         0.01
  YS02001586YS02001590        1.06      1.06      1.14      0.01         0.01
  YS02001590YS02001593        1.14      1.14      1.17      1.24         0.01
  YS02001593YS02001596        1.16      1.16      1.29      0.01         0.01
  YS02001596YS02001600        1.36      1.36      1.46      0.01         0.01
  YS02001600YS02001601        1.51      1.51      1.75      0.01         0.01
  YS02001601YS02001602        1.66      1.66      1.79      1.49         0.01
  YS02001602YS02001605        1.61      1.61      1.66      2.51         0.01
  YS02001605YS02001607        1.57      1.61      1.57      1.72         1.57
  YS02001607YS02001610        1.07      1.07      1.10      0.01         0.01
  YS02001610YS02001613        1.06      1.06      1.10      0.01         0.01
  YS02001613YS02001616        1.01      1.01      1.06      0.01         0.01
  YS02001616YS02001619        0.99      0.99      1.01      0.12         0.09
  YS02001619YS02001622        0.98      0.99      0.98      1.20         0.96
  YS02001622YS02001625        0.98      0.98      1.22      0.01         0.01
  YS02001625YS02001629        0.88      0.88      1.22      0.01         0.01
  YS02001629YS02163301        1.19      1.19      1.20      0.48         0.44
  YS02001633YS02163601        1.23      1.23      1.27      0.68         0.67
  YS02001641YS02001644        1.04      1.10      1.04      1.81         1.03
  YS02001644YS02001647        0.73      0.73      1.04      0.04         0.01
  YS02001647YS02001649        0.73      0.73      0.84      0.01         0.01
  YS02001649YS02001757        0.83      0.84      0.87      0.55         0.47
  YS02001652YS02001649        0.63      0.63      0.84      0.01         0.01
  YS02001655YS02001652        0.42      0.42      0.60      0.01         0.01
  YS02001658YS02001655        0.30      0.30      0.42      0.01         0.01
  YS02001661YS02001658        0.12      0.12      0.30      0.01         0.01
  YS02001664YS02001661        0.01      0.01      0.17      0.01         0.01
  YS02001745YS02001748        0.01      0.01      0.19      0.01         0.01
  YS02001748YS02001751        0.26      0.26      0.33      0.01         0.01
  YS02001751YS02001754        0.33      0.33      0.43      0.01         0.01
  YS02001754YS02001757        0.48      0.48      0.87      0.01         0.01
  YS02001757CaochengTiaoxuchi        0.46      0.87      0.97      0.68         0.20
  YS02001759YS02001757        0.75      0.75      0.87      0.13         0.15
  YS02001762YS02001759        0.71      0.71      0.75      0.01         0.04
  YS02001765YS02001762        0.66      0.66      0.71      0.01         0.01
  YS02001767YS02001765        0.61      0.61      0.66      0.02         0.07
  YS02001770YS02001767        0.61      0.62      0.61      0.81         0.57
  YS02001774YS02001770        0.59      0.59      0.70      0.01         0.01
  YS02001779YS02001774        0.46      0.46      0.70      0.01         0.01
  YS02001783YS02001784        0.75      0.78      0.75      0.98         0.75
  YS02001784YS02001785        0.62      0.75      0.62      1.33         0.62
  YS02001786YS02001788        0.01      0.62      0.01      1.13         0.01
  YS02001790YS02001791        0.01      0.01      0.01      0.73         0.01
  YS02001882YS02001884        0.71      0.71      0.72      0.01         0.01
  YS02001884YS02001887        0.75      0.75      0.77      0.01         0.01
  YS02001887YS02001890        0.79      0.79      0.80      0.21         0.01
  YS02001890YS02001895        0.70      0.70      0.82      0.01         0.01
  YS02001895YS02001898        0.69      0.69      0.70      0.01         0.01
  YS02001898YS02001901        0.70      0.70      0.75      0.01         0.01
  YS02001901YS02001904        0.74      0.74      0.75      0.01         0.01
  YS02001904YS02001907        0.74      0.74      1.10      0.01         0.01
  YS02001907YS02006553        1.34      1.34      1.44      0.01         0.01
  YS02001910YS02001907        0.82      0.82      1.07      0.08         0.09
  YS02001915YS02001910        0.71      0.71      0.82      0.01         0.01
  YS02001918YS02001915        0.60      0.60      0.71      0.01         0.01
  YS02001920YS02001918        0.60      0.60      0.62      0.01         0.01
  YS02001923YS02001920        0.55      0.55      0.62      0.01         0.01
  YS02001926YS02001923        0.22      0.22      0.28      0.01         0.01
  YS02001929YS02001926        0.11      0.11      0.28      0.01         0.01
  YS02006553YS02006556        0.94      0.94      1.09      0.01         0.01
  YS02006556YS02006558        1.02      1.02      1.13      0.01         0.01
  YS02006558YS02006561        0.64      0.93      0.64      1.26         0.64
  YS02006561YS02001783        0.56      0.56      0.78      0.01         0.01
  YS02163301YS02001633        1.20      1.20      1.26      0.01         0.01
  YS02163601YS02164001        1.11      1.11      1.27      0.34         0.01
  YS02164001YS02001641        1.10      1.11      1.10      1.02         0.82
  
  
  ***************
  Pumping Summary
  ***************
  
  ---------------------------------------------------------------------------------------------------------
                                                  Min       Avg       Max     Total     Power    % Time Off
                        Percent   Number of      Flow      Flow      Flow    Volume     Usage    Pump Curve
  Pump                 Utilized   Start-Ups       LPS       LPS       LPS  10^6 ltr     Kw-hr    Low   High
  ---------------------------------------------------------------------------------------------------------
  CC-R1                   31.53           3      0.00    683.00    683.00     6.137    104.37    0.0   61.2
  CC-R2                   31.53           3      0.00    683.00    683.00     6.137    104.37    0.0   61.2
  CC-S1                   36.11           5      0.00    200.00    200.00     2.058     15.22    0.0   33.2
  CC-S2                   36.11           5      0.00    200.00    200.00     2.058     15.22    0.0   33.2
  JK-R1                    6.30          88      0.00    999.67   1000.00     1.795      5.18    0.0    0.0
  JK-R2                    6.30          88      0.00    999.67   1000.00     1.795      5.18    0.0    0.0
  JK-S                    22.19         115      0.00    299.91    300.00     1.896     42.53    0.0    0.0
  

  Analysis begun on:  Thu Jan 16 14:27:28 2025
  Analysis ended on:  Thu Jan 16 14:27:30 2025
  Total elapsed time: 00:00:02