
  EPA STORM WATER MANAGEMENT MODEL - VERSION 5.2 (Build 5.2.4)
  PYSWMM TOOLKIT API - VERSION v1.0 (2023-11-27)
  ------------------------------------------------------------

  WARNING 04: minimum elevation drop used for Conduit WS02004404WS02004405
  WARNING 03: negative offset ignored for Link YS02001904YS02001907
  
  ****************
  Analysis Options
  ****************
  Flow Units ............... LPS
  Process Models:
    Rainfall/Runoff ........ YES
    RDII ................... NO
    Snowmelt ............... NO
    Groundwater ............ NO
    Flow Routing ........... YES
    Ponding Allowed ........ NO
    Water Quality .......... NO
  Infiltration Method ...... HORTON
  Flow Routing Method ...... DYNWAVE
  Surcharge Method ......... EXTRAN
  Starting Date ............ 08/28/2015 08:00:00
  Ending Date .............. 08/28/2015 16:00:00
  Antecedent Dry Days ...... 8.0
  Report Time Step ......... 00:01:00
  Wet Time Step ............ 00:01:00
  Dry Time Step ............ 00:01:00
  Routing Time Step ........ 30.00 sec
  Variable Time Step ....... YES
  Maximum Trials ........... 8
  Number of Threads ........ 4
  Head Tolerance ........... 0.001500 m
  
  
  **************************        Volume         Depth
  Runoff Quantity Continuity     hectare-m            mm
  **************************     ---------       -------
  Total Precipitation ......         2.500        75.370
  Evaporation Loss .........         0.000         0.000
  Infiltration Loss ........         0.101         3.053
  Surface Runoff ...........         2.366        71.337
  Final Storage ............         0.033         0.995
  Continuity Error (%) .....        -0.021
  
  
  **************************        Volume        Volume
  Flow Routing Continuity        hectare-m      10^6 ltr
  **************************     ---------     ---------
  Dry Weather Inflow .......         0.025         0.251
  Wet Weather Inflow .......         2.366        23.660
  Groundwater Inflow .......         0.000         0.000
  RDII Inflow ..............         0.000         0.000
  External Inflow ..........         0.083         0.834
  External Outflow .........         1.799        17.985
  Flooding Loss ............         0.733         7.328
  Evaporation Loss .........         0.000         0.000
  Exfiltration Loss ........         0.000         0.000
  Initial Stored Volume ....         0.243         2.431
  Final Stored Volume ......         0.193         1.934
  Continuity Error (%) .....        -0.265
  
  
  *************************
  Highest Continuity Errors
  *************************
  Node YS02001583 (-10.72%)
  Node YS02001884 (5.41%)
  
  
  ***************************
  Time-Step Critical Elements
  ***************************
  Link WS02006252WS02006251 (20.52%)
  Link WS02006238WS02006235 (19.94%)
  Link WS02004404WS02004405 (18.37%)
  Link WS02006235WS02006234 (11.60%)
  Link YS02001791YS02001793 (9.28%)
  
  
  ********************************
  Highest Flow Instability Indexes
  ********************************
  Link WS02006113WS02006111 (52)
  Link WS02006111WS02006112 (34)
  Link WS02004404WS02004405 (27)
  Link WS02004403WS02004404 (26)
  Link WS02004405WS02004406 (24)
  
  
  *********************************
  Most Frequent Nonconverging Nodes
  *********************************
  Node CC-1 (15.00%)
  Node CC-2 (15.00%)
  Node JK-1 (15.00%)
  Node JK-2 (15.00%)
  Node WSC (15.00%)
  
  
  *************************
  Routing Time Step Summary
  *************************
  Minimum Time Step           :     0.00 sec
  Average Time Step           :     2.34 sec
  Maximum Time Step           :     7.04 sec
  % of Time in Steady State   :     0.00
  Average Iterations per Step :     3.35
  % of Steps Not Converging   :    15.00
  Time Step Frequencies       :
     30.000 - 13.228 sec      :     0.00 %
     13.228 -  5.833 sec      :     9.27 %
      5.833 -  2.572 sec      :    25.43 %
      2.572 -  1.134 sec      :    36.19 %
      1.134 -  0.500 sec      :    29.11 %
  
  
  ***************************
  Subcatchment Runoff Summary
  ***************************
  
  ------------------------------------------------------------------------------------------------------------------------------
                            Total      Total      Total      Total     Imperv       Perv      Total       Total     Peak  Runoff
                           Precip      Runon       Evap      Infil     Runoff     Runoff     Runoff      Runoff   Runoff   Coeff
  Subcatchment                 mm         mm         mm         mm         mm         mm         mm    10^6 ltr      LPS
  ------------------------------------------------------------------------------------------------------------------------------
  sub60                     75.37       0.00       0.00       1.86      65.12       7.19      72.31        0.95   534.86   0.959
  sub61                     75.37       0.00       0.00       2.69      61.43      10.13      71.56        1.31   738.39   0.949
  sub62                     75.37       0.00       0.00       1.24      68.06       4.79      72.85        2.00  1040.99   0.967
  sub63                     75.37       0.00       0.00       4.93      52.54      16.93      69.48        1.58   812.50   0.922
  sub64                     75.37       0.00       0.00       2.50      62.86       8.81      71.67        1.72   842.39   0.951
  sub65                     75.37       0.00       0.00       2.16      64.32       7.64      71.96        1.98   942.02   0.955
  sub66                     75.37       0.00       0.00       6.02      52.44      15.84      68.27        3.18  1220.47   0.906
  sub67                     75.37       0.00       0.00       1.19      68.10       4.84      72.94        1.36   806.69   0.968
  sub68                     75.37       0.00       0.00       2.23      63.63       8.33      71.96        1.98  1064.07   0.955
  sub69                     75.37       0.00       0.00       1.98      63.95       9.33      73.28        2.71  1260.76   0.972
  sub70                     75.37       0.00       0.00       6.49      49.58      19.14      68.72        1.99   691.11   0.912
  sub71                     75.37       0.00       0.00       1.27      68.01       4.76      72.78        1.90   914.30   0.966
  sub72                     75.37       0.00       0.00       1.13      68.69       4.15      72.84        1.00   441.20   0.966
  
  
  ******************
  Node Depth Summary
  ******************
  
  ---------------------------------------------------------------------------------
                                 Average  Maximum  Maximum  Time of Max    Reported
                                   Depth    Depth      HGL   Occurrence   Max Depth
  Node                 Type       Meters   Meters   Meters  days hr:min      Meters
  ---------------------------------------------------------------------------------
  WS02003060           JUNCTION     0.26     0.38     5.32     0  03:05        0.38
  WS02003066           JUNCTION     0.21     0.30     5.85     0  03:04        0.30
  WS02003067           JUNCTION     0.53     0.70     6.02     0  03:04        0.70
  WS02003069           JUNCTION     0.29     0.43     5.02     0  03:09        0.43
  WS02003072           JUNCTION     0.35     0.50     4.87     0  03:06        0.50
  WS02003073           JUNCTION     0.20     0.30     4.36     0  03:07        0.30
  WS02004401           JUNCTION     0.64     0.88     6.88     0  03:03        0.88
  WS02004402           JUNCTION     0.67     0.90     6.86     0  03:03        0.90
  WS02004403           JUNCTION     0.69     0.92     6.85     0  03:07        0.92
  WS02004404           JUNCTION     0.77     1.05     6.90     0  03:06        1.00
  WS02004405           JUNCTION     0.75     0.97     6.82     0  03:03        0.97
  WS02004406           JUNCTION     0.76     0.96     6.79     0  03:02        0.96
  WS02004407           JUNCTION     0.20     0.30     6.61     0  03:02        0.30
  WS02004409           JUNCTION     0.44     0.67     6.44     0  03:03        0.67
  WS02004410           JUNCTION     0.46     0.68     6.40     0  03:03        0.68
  WS02004411           JUNCTION     0.48     0.69     6.37     0  03:03        0.69
  WS02004412           JUNCTION     0.50     0.70     6.34     0  03:04        0.70
  WS02004413           JUNCTION     0.66     0.86     6.33     0  03:04        0.86
  WS02006109           JUNCTION     0.70     1.48     8.10     0  02:46        1.01
  WS02006110           JUNCTION     0.69     1.70     8.28     0  02:46        0.97
  WS02006111           JUNCTION     0.19     0.29     7.00     0  04:40        0.29
  WS02006112           JUNCTION     0.80     1.08     6.96     0  02:56        1.08
  WS02006113           JUNCTION     0.30     0.46     7.35     0  04:40        0.46
  WS02006115           JUNCTION     0.53     0.77     6.91     0  03:05        0.77
  WS02006116           JUNCTION     0.61     0.85     6.89     0  03:01        0.85
  WS02006228           JUNCTION     0.70     1.37     8.02     0  02:46        1.14
  WS02006229           JUNCTION     0.67     1.39     8.08     0  01:32        1.19
  WS02006230           JUNCTION     0.68     1.55     8.30     0  01:32        1.36
  WS02006231           JUNCTION     0.47     1.29     8.41     0  01:32        1.07
  WS02006232           JUNCTION     0.61     1.42     8.46     0  01:32        1.21
  WS02006234           JUNCTION     0.54     1.48     8.64     0  02:45        1.24
  WS02006235           JUNCTION     0.59     1.69     8.85     0  02:45        1.28
  WS02006238           JUNCTION     0.62     1.75     8.89     0  02:45        1.31
  WS02006239           JUNCTION     0.60     1.70     8.91     0  02:45        1.30
  WS02006240           JUNCTION     0.57     1.59     8.89     0  02:45        1.26
  WS02006242           JUNCTION     0.65     1.55     8.82     0  02:45        1.42
  WS02006243           JUNCTION     0.57     1.40     8.82     0  02:45        1.21
  WS02006245           JUNCTION     0.58     1.30     8.79     0  02:45        1.17
  WS02006247           JUNCTION     0.60     1.25     8.75     0  02:45        1.17
  WS02006248           JUNCTION     0.56     1.10     8.69     0  01:40        1.10
  WS02006249           JUNCTION     0.59     1.09     8.69     0  01:31        1.09
  WS02006251           JUNCTION     0.60     1.53     9.20     0  01:31        1.14
  WS02006252           JUNCTION     0.41     1.50     9.74     0  00:00        0.69
  WS02006256           JUNCTION     0.99     2.35     9.28     0  00:00        2.35
  WSF200               JUNCTION     0.19     0.29     5.52     0  03:04        0.29
  YS02001580           JUNCTION     0.11     1.05     9.59     0  01:34        0.78
  YS02001583           JUNCTION     0.15     1.14     9.64     0  01:34        0.82
  YS02001586           JUNCTION     0.23     1.13     9.30     0  01:34        1.13
  YS02001590           JUNCTION     0.33     1.40     9.26     0  01:34        1.38
  YS02001593           JUNCTION     0.27     1.36     9.22     0  01:34        1.29
  YS02001596           JUNCTION     0.36     1.70     9.12     0  01:34        1.65
  YS02001600           JUNCTION     0.43     1.87     9.00     0  01:34        1.87
  YS02001601           JUNCTION     0.63     2.06     8.90     0  01:31        2.06
  YS02001602           JUNCTION     0.53     1.87     8.77     0  01:33        1.87
  YS02001605           JUNCTION     0.50     1.78     8.68     0  01:33        1.77
  YS02001607           JUNCTION     0.49     1.65     8.49     0  01:51        1.65
  YS02001610           JUNCTION     0.53     1.68     8.48     0  01:33        1.68
  YS02001613           JUNCTION     0.49     1.68     8.52     0  01:48        1.66
  YS02001616           JUNCTION     0.42     1.61     8.52     0  01:34        1.61
  YS02001619           JUNCTION     0.40     1.61     8.54     0  01:34        1.61
  YS02001622           JUNCTION     0.38     1.61     8.52     0  01:48        1.59
  YS02001625           JUNCTION     0.65     1.78     8.38     0  01:34        1.78
  YS02001629           JUNCTION     0.51     1.85     8.40     0  01:34        1.85
  YS02001633           JUNCTION     0.59     2.04     8.49     0  01:36        2.01
  YS02001641           JUNCTION     0.57     2.06     8.50     0  01:48        2.06
  YS02001644           JUNCTION     0.57     1.92     8.35     0  01:36        1.92
  YS02001647           JUNCTION     0.36     1.81     8.42     0  01:48        1.73
  YS02001649           JUNCTION     0.41     2.05     8.44     0  01:37        1.95
  YS02001652           JUNCTION     0.30     2.16     8.76     0  02:11        1.81
  YS02001655           JUNCTION     0.24     2.20     9.05     0  02:11        1.65
  YS02001658           JUNCTION     0.17     1.84     8.99     0  01:37        1.46
  YS02001661           JUNCTION     0.17     1.66     9.06     0  01:37        1.31
  YS02001664           JUNCTION     0.06     0.90     8.83     0  01:37        0.88
  YS02001745           JUNCTION     0.08     1.98     9.50     0  01:37        0.75
  YS02001748           JUNCTION     0.16     2.27     9.35     0  01:37        1.18
  YS02001751           JUNCTION     0.20     2.20     9.08     0  01:37        1.80
  YS02001754           JUNCTION     0.27     2.20     8.81     0  01:37        1.83
  YS02001757           JUNCTION     0.44     2.21     8.47     0  01:37        1.95
  YS02001759           JUNCTION     0.38     2.20     8.57     0  01:37        1.97
  YS02001762           JUNCTION     0.37     2.15     8.55     0  01:37        1.96
  YS02001765           JUNCTION     0.35     2.10     8.55     0  01:37        1.93
  YS02001767           JUNCTION     0.34     2.03     8.52     0  01:37        1.92
  YS02001770           JUNCTION     0.35     1.95     8.44     0  01:36        1.95
  YS02001774           JUNCTION     0.42     2.05     8.47     0  01:48        2.00
  YS02001779           JUNCTION     0.25     1.68     8.37     0  01:36        1.68
  YS02001783           JUNCTION     0.26     1.38     7.52     0  01:35        1.26
  YS02001784           JUNCTION     0.27     1.22     7.29     0  01:35        1.15
  YS02001786           JUNCTION     0.23     0.95     6.98     0  01:35        0.88
  YS02001788           JUNCTION     0.16     0.62     6.60     0  01:39        0.62
  YS02001790           JUNCTION     0.19     0.73     6.37     0  01:40        0.72
  YS02001791           JUNCTION     0.12     0.44     5.91     0  01:44        0.43
  YS02001793           JUNCTION     0.06     0.30     5.14     0  01:40        0.29
  YS02001882           JUNCTION     0.34     1.83     8.55     0  01:34        1.66
  YS02001884           JUNCTION     0.43     1.85     8.47     0  01:34        1.76
  YS02001887           JUNCTION     0.50     1.88     8.42     0  01:34        1.85
  YS02001890           JUNCTION     0.53     1.81     8.32     0  01:34        1.81
  YS02001895           JUNCTION     0.30     1.67     8.41     0  01:48        1.67
  YS02001898           JUNCTION     0.31     1.77     8.51     0  01:48        1.77
  YS02001901           JUNCTION     0.43     1.87     8.48     0  01:48        1.87
  YS02001904           JUNCTION     0.41     1.79     8.42     0  01:48        1.79
  YS02001907           JUNCTION     0.73     1.96     8.25     0  01:35        1.96
  YS02001910           JUNCTION     0.53     1.98     8.49     0  01:36        1.88
  YS02001915           JUNCTION     0.34     1.93     8.64     0  01:36        1.78
  YS02001918           JUNCTION     0.19     1.81     8.88     0  01:36        1.48
  YS02001920           JUNCTION     0.27     2.14     9.15     0  01:36        1.55
  YS02001923           JUNCTION     0.14     2.03     9.29     0  01:36        1.32
  YS02001926           JUNCTION     0.18     1.90     9.35     0  01:36        1.14
  YS02001929           JUNCTION     0.10     1.78     9.47     0  01:36        0.89
  YS02006553           JUNCTION     0.73     2.03     8.31     0  01:48        2.01
  YS02006556           JUNCTION     0.70     2.05     8.37     0  01:48        2.02
  YS02006558           JUNCTION     0.75     2.08     8.34     0  01:35        2.08
  YS02006561           JUNCTION     0.17     1.11     7.77     0  01:35        0.92
  YS02163301           JUNCTION     0.54     1.94     8.46     0  01:34        1.92
  YS02163601           JUNCTION     0.63     2.08     8.48     0  02:13        2.03
  YS02164001           JUNCTION     0.56     2.05     8.51     0  01:48        2.05
  CC-1                 OUTFALL      0.00     0.00     0.00     0  00:00        0.00
  CC-2                 OUTFALL      0.00     0.00     0.00     0  00:00        0.00
  JK-1                 OUTFALL      0.00     0.00     0.00     0  00:00        0.00
  JK-2                 OUTFALL      0.00     0.00     0.00     0  00:00        0.00
  WSC                  OUTFALL      0.20     0.30     0.97     0  03:07        0.30
  CC-storage           STORAGE      0.92     1.73     7.23     0  02:20        1.73
  JK-storage           STORAGE      2.81     4.24     5.04     0  01:40        4.19
  
  
  *******************
  Node Inflow Summary
  *******************
  
  -------------------------------------------------------------------------------------------------
                                  Maximum  Maximum                  Lateral       Total        Flow
                                  Lateral    Total  Time of Max      Inflow      Inflow     Balance
                                   Inflow   Inflow   Occurrence      Volume      Volume       Error
  Node                 Type           LPS      LPS  days hr:min    10^6 ltr    10^6 ltr     Percent
  -------------------------------------------------------------------------------------------------
  WS02003060           JUNCTION     16.53   554.81     0  03:05       0.476        6.81       0.032
  WS02003066           JUNCTION      0.00   538.05     0  03:04           0        6.33       0.022
  WS02003067           JUNCTION      0.00   537.98     0  03:04           0        6.34       0.066
  WS02003069           JUNCTION      0.32   554.98     0  03:05     0.00922        6.81       0.058
  WS02003072           JUNCTION      0.00   554.71     0  03:06           0        6.81       0.103
  WS02003073           JUNCTION      1.82   556.40     0  03:06      0.0524        6.85       0.082
  WS02004401           JUNCTION      0.00   538.63     0  03:00           0        6.43       0.159
  WS02004402           JUNCTION      0.00   541.41     0  03:02           0        6.42       0.162
  WS02004403           JUNCTION      0.00   542.77     0  03:02           0        6.41       0.155
  WS02004404           JUNCTION      0.16   561.33     0  03:06     0.00467        6.41       0.119
  WS02004405           JUNCTION      0.04   601.25     0  03:02      0.0011         6.4       0.174
  WS02004406           JUNCTION      0.00   543.44     0  03:02           0        6.39       0.324
  WS02004407           JUNCTION      0.00   539.74     0  03:02           0        6.37       0.018
  WS02004409           JUNCTION      0.00   539.28     0  03:02           0        6.37       0.043
  WS02004410           JUNCTION      0.00   538.78     0  03:03           0        6.37       0.069
  WS02004411           JUNCTION      0.00   538.54     0  03:03           0        6.36       0.087
  WS02004412           JUNCTION      0.00   538.32     0  03:03           0        6.36       0.117
  WS02004413           JUNCTION      0.00   538.22     0  03:04           0        6.35       0.208
  WS02006109           JUNCTION      1.23   569.93     0  01:32      0.0354        6.48       0.128
  WS02006110           JUNCTION      0.00   571.51     0  01:32           0        6.47       0.104
  WS02006111           JUNCTION      0.00   563.13     0  04:40           0        6.46       0.008
  WS02006112           JUNCTION      0.00   547.28     0  04:40           0        6.46       0.269
  WS02006113           JUNCTION      0.00   572.04     0  02:46           0        6.46       0.033
  WS02006115           JUNCTION      0.00   550.88     0  02:47           0        6.44       0.101
  WS02006116           JUNCTION      0.00   539.06     0  02:39           0        6.44       0.038
  WS02006228           JUNCTION      0.00   564.67     0  01:32           0        6.45       0.045
  WS02006229           JUNCTION      0.00   564.40     0  01:32           0        6.45       0.068
  WS02006230           JUNCTION     10.28   587.16     0  01:40       0.296        6.45       0.058
  WS02006231           JUNCTION      0.00   576.66     0  02:10           0        6.16       0.018
  WS02006232           JUNCTION      0.00   574.48     0  02:10           0        6.17       0.136
  WS02006234           JUNCTION      0.00   569.90     0  02:10           0        6.16      -0.111
  WS02006235           JUNCTION      0.00   560.40     0  02:10           0         6.2       0.135
  WS02006238           JUNCTION      0.00   422.81     0  01:45           0         5.4      -0.140
  WS02006239           JUNCTION      0.00   421.86     0  01:45           0        5.37      -0.158
  WS02006240           JUNCTION      0.00   419.36     0  02:15           0        5.35      -0.014
  WS02006242           JUNCTION      0.00   419.45     0  03:16           0        5.34       0.019
  WS02006243           JUNCTION      0.00   418.90     0  03:16           0        5.33      -0.112
  WS02006245           JUNCTION      0.00   418.38     0  01:45           0        5.34       0.251
  WS02006247           JUNCTION      0.00   418.59     0  01:45           0        5.34       0.004
  WS02006248           JUNCTION      0.00   420.08     0  01:45           0        5.34       0.017
  WS02006249           JUNCTION      0.00   459.02     0  00:00           0        5.59       0.238
  WS02006251           JUNCTION      0.08   408.12     0  03:10     0.00222        5.59       0.014
  WS02006252           JUNCTION      0.00   400.00     0  00:00           0        5.57      -0.212
  WS02006256           JUNCTION      0.00   300.00     0  00:00           0        1.22      -0.772
  WSF200               JUNCTION      0.00   538.10     0  03:04           0        6.33       0.006
  YS02001580           JUNCTION      0.00   151.14     0  01:33           0     0.00439      -2.191
  YS02001583           JUNCTION      0.00   263.54     0  01:34           0      0.0149      -9.685
  YS02001586           JUNCTION    691.11   691.14     0  01:43        1.99           2       0.091
  YS02001590           JUNCTION      0.00   318.55     0  01:48           0        1.55      -0.030
  YS02001593           JUNCTION      0.00   318.17     0  01:48           0        1.55       0.010
  YS02001596           JUNCTION      0.00   317.98     0  01:55           0        1.55      -0.007
  YS02001600           JUNCTION      0.00   318.00     0  02:05           0        1.55      -0.003
  YS02001601           JUNCTION   1260.76  1578.47     0  01:41        2.71        4.26       0.018
  YS02001602           JUNCTION      0.00   572.42     0  01:33           0        2.57       0.014
  YS02001605           JUNCTION      0.00   572.31     0  01:33           0        2.41       0.011
  YS02001607           JUNCTION      0.00   572.28     0  01:33           0        2.41       0.077
  YS02001610           JUNCTION      0.00   660.45     0  01:43           0        2.65       0.082
  YS02001613           JUNCTION      0.00   563.27     0  01:33           0        2.06       0.081
  YS02001616           JUNCTION      0.00   569.88     0  01:33           0        2.06       0.019
  YS02001619           JUNCTION   1220.47  1220.47     0  01:42        3.18           5      -0.005
  YS02001622           JUNCTION      0.00   934.02     0  01:34           0        4.76      -0.011
  YS02001625           JUNCTION      0.00  1285.00     0  01:42           0        4.98       0.186
  YS02001629           JUNCTION      0.00   941.95     0  01:34           0        3.81       0.005
  YS02001633           JUNCTION    942.22  1445.31     0  01:35        1.99        5.52       0.062
  YS02001641           JUNCTION      0.00  1439.59     0  01:35           0        5.26       0.052
  YS02001644           JUNCTION    842.43  1956.51     0  01:35        1.72        6.98       0.047
  YS02001647           JUNCTION      0.00  1955.47     0  01:35           0        6.62       0.008
  YS02001649           JUNCTION      0.00  2216.25     0  01:36           0        8.21       0.010
  YS02001652           JUNCTION      0.00   987.36     0  01:38           0        1.59      -0.053
  YS02001655           JUNCTION      0.15   985.05     0  01:38     0.00443        1.58      -0.177
  YS02001658           JUNCTION      0.00   982.37     0  01:38           0         1.6      -0.224
  YS02001661           JUNCTION      0.00   978.43     0  01:38           0         1.6       0.062
  YS02001664           JUNCTION    812.50   812.50     0  01:39        1.58        1.58      -0.020
  YS02001745           JUNCTION    534.86   712.52     0  01:37        0.95       0.954       0.179
  YS02001748           JUNCTION      0.04   822.03     0  01:36      0.0013       0.959      -0.364
  YS02001751           JUNCTION      0.01   666.85     0  01:37    0.000317       0.966      -0.010
  YS02001754           JUNCTION      0.26   668.45     0  01:37     0.00749       0.979      -0.210
  YS02001757           JUNCTION      0.00  3567.48     0  01:37           0        12.3       0.052
  YS02001759           JUNCTION    738.43  1533.30     0  01:37        1.31        3.17      -0.003
  YS02001762           JUNCTION      0.00   851.90     0  01:37           0        1.85      -0.009
  YS02001765           JUNCTION      0.00   855.41     0  01:37           0        1.85       0.012
  YS02001767           JUNCTION      0.54   861.35     0  01:37      0.0154        1.85       0.001
  YS02001770           JUNCTION   1041.14  1041.14     0  01:40           2        2.05       0.016
  YS02001774           JUNCTION      0.00   477.00     0  01:36           0       0.235       0.602
  YS02001779           JUNCTION      0.01   444.71     0  01:36    0.000144       0.185      -0.715
  YS02001783           JUNCTION      0.00  1165.36     0  01:36           0        4.72       0.005
  YS02001784           JUNCTION      1.06  1166.81     0  01:36      0.0305        4.75       0.010
  YS02001786           JUNCTION      0.06  1166.69     0  01:36     0.00162        4.75       0.013
  YS02001788           JUNCTION      0.07  1168.04     0  01:37     0.00204        4.75       0.006
  YS02001790           JUNCTION      0.15  1176.32     0  01:37     0.00446        4.75       0.027
  YS02001791           JUNCTION      0.00  1294.27     0  01:39           0        4.75      -0.036
  YS02001793           JUNCTION      0.00  1260.92     0  01:44           0        4.75       0.006
  YS02001882           JUNCTION      0.00    92.84     0  01:34           0      0.0133       3.905
  YS02001884           JUNCTION      0.00   131.55     0  01:34           0      0.0496       5.714
  YS02001887           JUNCTION    807.14   808.74     0  01:38        1.37         1.4       0.319
  YS02001890           JUNCTION      0.00   808.98     0  01:38           0        1.36       0.379
  YS02001895           JUNCTION      0.00   567.33     0  01:35           0        1.25       0.140
  YS02001898           JUNCTION      0.00   573.45     0  01:35           0        1.25       0.008
  YS02001901           JUNCTION      0.00   580.64     0  01:35           0        1.25       0.260
  YS02001904           JUNCTION      0.00   583.17     0  01:35           0        1.26       0.229
  YS02001907           JUNCTION      0.00  1887.44     0  01:39           0        4.24       0.433
  YS02001910           JUNCTION      0.00  1370.79     0  01:39           0        2.99       0.247
  YS02001915           JUNCTION    914.32  1369.81     0  01:39         1.9        3.04       0.048
  YS02001918           JUNCTION      0.00   639.12     0  01:35           0        1.17       0.016
  YS02001920           JUNCTION      2.87   628.50     0  01:35      0.0827        1.14       0.061
  YS02001923           JUNCTION      0.04   844.58     0  01:35     0.00109        1.04      -0.118
  YS02001926           JUNCTION      0.05  1123.00     0  01:35      0.0015        1.02      -0.316
  YS02001929           JUNCTION    441.20  1102.48     0  01:36           1        1.01      -0.320
  YS02006553           JUNCTION      0.00   791.36     0  02:03           0        2.77       0.428
  YS02006556           JUNCTION      0.00   790.70     0  02:03           0        2.78       0.299
  YS02006558           JUNCTION   1064.95  1183.18     0  01:35        2.01        4.75       0.082
  YS02006561           JUNCTION      0.00  1182.15     0  01:35           0        4.72      -0.001
  YS02163301           JUNCTION      0.00   908.92     0  01:35           0        3.79       0.036
  YS02163601           JUNCTION      0.11  1444.83     0  01:35     0.00317        5.26       0.093
  YS02164001           JUNCTION      0.00  1443.15     0  01:35           0        5.26       0.044
  CC-1                 OUTFALL       0.00   683.00     0  00:00           0        3.91       0.000
  CC-2                 OUTFALL       0.00   683.00     0  00:00           0        3.71       0.000
  JK-1                 OUTFALL       0.00  1000.00     0  00:00           0        2.44       0.000
  JK-2                 OUTFALL       0.00  1000.00     0  00:00           0        1.08       0.000
  WSC                  OUTFALL       0.00   556.28     0  03:07           0        6.85       0.000
  CC-storage           STORAGE       0.00  3566.55     0  01:38           0        14.6      -0.218
  JK-storage           STORAGE       0.00  1275.79     0  01:50           0         4.9       0.058
  
  
  **********************
  Node Surcharge Summary
  **********************
  
  Surcharging occurs when water rises above the top of the highest conduit.
  ---------------------------------------------------------------------
                                               Max. Height   Min. Depth
                                   Hours       Above Crown    Below Rim
  Node                 Type      Surcharged         Meters       Meters
  ---------------------------------------------------------------------
  WS02004404           JUNCTION        0.02          0.050        2.730
  WS02006109           JUNCTION        3.03          0.664        1.156
  WS02006110           JUNCTION        0.81          0.786        1.064
  WS02006112           JUNCTION        0.87          0.079        1.601
  WS02006228           JUNCTION        3.01          0.540        1.660
  WS02006229           JUNCTION        3.05          0.588        1.862
  WS02006230           JUNCTION        0.82          0.471        1.099
  WS02006231           JUNCTION        0.92          0.575        0.955
  WS02006232           JUNCTION        3.20          0.718        0.762
  WS02006234           JUNCTION        1.17          0.759        0.481
  WS02006235           JUNCTION        3.02          0.980        0.310
  WS02006238           JUNCTION        3.11          1.027        0.403
  WS02006239           JUNCTION        3.03          0.960        0.330
  WS02006240           JUNCTION        3.05          0.883        0.507
  WS02006242           JUNCTION        3.27          0.820        0.000
  WS02006243           JUNCTION        3.08          0.685        0.085
  WS02006245           JUNCTION        3.07          0.594        0.256
  WS02006247           JUNCTION        3.12          0.543        0.217
  WS02006248           JUNCTION        3.05          0.380        0.000
  WS02006249           JUNCTION        3.09          0.390        0.000
  WS02006251           JUNCTION        0.97          0.501        0.679
  WS02006252           JUNCTION        3.66          1.100        0.000
  WS02006256           JUNCTION        7.03          2.050        0.000
  YS02001580           JUNCTION        0.78          0.450        0.000
  YS02001583           JUNCTION        0.78          0.500        0.000
  YS02001586           JUNCTION        0.98          0.510        0.000
  YS02001590           JUNCTION        1.07          0.750        0.000
  YS02001593           JUNCTION        1.07          0.737        0.103
  YS02001596           JUNCTION        1.20          0.972        0.098
  YS02001600           JUNCTION        1.38          1.190        0.000
  YS02001601           JUNCTION        1.70          1.440        0.000
  YS02001602           JUNCTION        1.63          1.270        0.000
  YS02001605           JUNCTION        1.59          1.180        0.000
  YS02001607           JUNCTION        1.06          0.646        0.034
  YS02001610           JUNCTION        1.10          0.680        0.000
  YS02001613           JUNCTION        1.06          0.682        0.018
  YS02001616           JUNCTION        1.02          0.610        0.000
  YS02001619           JUNCTION        1.00          0.610        0.000
  YS02001622           JUNCTION        1.00          0.614        0.006
  YS02001625           JUNCTION        1.21          0.780        0.000
  YS02001629           JUNCTION        0.93          0.470        0.000
  YS02001633           JUNCTION        1.24          1.020        0.040
  YS02001641           JUNCTION        1.19          1.064        0.036
  YS02001644           JUNCTION        1.17          0.920        0.000
  YS02001647           JUNCTION        0.94          0.808        0.092
  YS02001649           JUNCTION        1.10          1.050        0.000
  YS02001652           JUNCTION        0.86          1.130        0.000
  YS02001655           JUNCTION        0.56          1.200        0.000
  YS02001658           JUNCTION        0.27          0.844        0.456
  YS02001661           JUNCTION        0.02          0.590        0.800
  YS02001745           JUNCTION        0.01          0.980        0.370
  YS02001748           JUNCTION        0.18          1.190        0.000
  YS02001751           JUNCTION        0.40          1.200        0.000
  YS02001754           JUNCTION        0.73          1.150        0.000
  YS02001757           JUNCTION        1.19          1.210        0.000
  YS02001759           JUNCTION        1.08          1.204        0.006
  YS02001762           JUNCTION        1.04          1.150        0.000
  YS02001765           JUNCTION        0.98          1.100        0.000
  YS02001767           JUNCTION        0.93          1.030        0.000
  YS02001770           JUNCTION        0.90          0.920        0.000
  YS02001774           JUNCTION        1.01          1.050        0.000
  YS02001779           JUNCTION        0.70          0.680        0.000
  YS02001783           JUNCTION        0.67          0.577        1.023
  YS02001784           JUNCTION        0.64          0.422        1.068
  YS02001786           JUNCTION        0.53          0.149        1.281
  YS02001882           JUNCTION        0.60          0.830        0.000
  YS02001884           JUNCTION        0.61          0.794        0.076
  YS02001887           JUNCTION        0.66          0.830        0.120
  YS02001890           JUNCTION        0.67          0.760        0.000
  YS02001895           JUNCTION        0.59          0.665        0.085
  YS02001898           JUNCTION        0.58          0.740        0.000
  YS02001901           JUNCTION        0.64          0.870        0.000
  YS02001904           JUNCTION        0.63          0.793        0.057
  YS02001907           JUNCTION        0.89          0.950        0.000
  YS02001910           JUNCTION        0.70          0.981        0.119
  YS02001915           JUNCTION        0.60          0.926        0.074
  YS02001918           JUNCTION        0.51          0.810        0.000
  YS02001920           JUNCTION        0.52          1.140        0.000
  YS02001923           JUNCTION        0.11          0.820        0.000
  YS02001926           JUNCTION        0.15          0.900        0.000
  YS02001929           JUNCTION        0.01          0.780        0.000
  YS02006553           JUNCTION        0.92          1.026        0.164
  YS02006556           JUNCTION        0.79          1.015        0.335
  YS02006558           JUNCTION        0.79          0.977        0.423
  YS02006561           JUNCTION        0.47          0.312        0.838
  YS02163301           JUNCTION        1.22          0.939        0.091
  YS02163601           JUNCTION        1.28          1.080        0.000
  YS02164001           JUNCTION        1.19          1.050        0.050
  
  
  *********************
  Node Flooding Summary
  *********************
  
  Flooding refers to all water that overflows a node, whether it ponds or not.
  --------------------------------------------------------------------------
                                                             Total   Maximum
                                 Maximum   Time of Max       Flood    Ponded
                        Hours       Rate    Occurrence      Volume     Depth
  Node                 Flooded       LPS   days hr:min    10^6 ltr    Meters
  --------------------------------------------------------------------------
  WS02006242              0.01      4.96      0  02:45       0.000     0.000
  WS02006248              0.01     13.92      0  01:40       0.000     0.000
  WS02006249              0.95    104.95      0  01:31       0.233     0.000
  WS02006252              0.01    245.63      0  00:00       0.000     0.000
  WS02006256              1.13    293.19      0  00:00       0.405     0.000
  YS02001580              0.01     63.64      0  01:34       0.000     0.000
  YS02001583              0.01    149.61      0  01:34       0.000     0.000
  YS02001586              0.62    373.49      0  01:43       0.433     0.000
  YS02001590              0.01      1.48      0  01:34       0.000     0.000
  YS02001600              0.01      5.34      0  01:34       0.000     0.000
  YS02001601              0.89   1180.51      0  01:41       1.693     0.000
  YS02001602              0.78     61.97      0  02:11       0.158     0.000
  YS02001605              0.01      4.83      0  01:33       0.000     0.000
  YS02001610              0.68    660.15      0  01:43       0.827     0.000
  YS02001616              0.01     39.49      0  01:34       0.000     0.000
  YS02001619              0.01     86.11      0  01:34       0.000     0.000
  YS02001625              0.66   1284.80      0  01:42       1.423     0.000
  YS02001629              0.12    273.69      0  01:38       0.059     0.000
  YS02001644              0.22    812.83      0  01:38       0.343     0.000
  YS02001649              0.01    135.26      0  01:37       0.001     0.000
  YS02001652              0.01     20.42      0  02:11       0.000     0.000
  YS02001655              0.01    295.14      0  02:11       0.000     0.000
  YS02001748              0.01     60.44      0  01:37       0.000     0.000
  YS02001751              0.01     56.07      0  01:37       0.000     0.000
  YS02001754              0.01     75.48      0  01:37       0.000     0.000
  YS02001757              0.01     65.85      0  01:37       0.000     0.000
  YS02001762              0.01     44.05      0  01:48       0.000     0.000
  YS02001765              0.01     29.03      0  01:48       0.000     0.000
  YS02001767              0.01     14.55      0  01:37       0.000     0.000
  YS02001770              0.01     82.91      0  01:36       0.001     0.000
  YS02001774              0.01     38.51      0  01:48       0.000     0.000
  YS02001779              0.20    425.42      0  01:36       0.163     0.000
  YS02001882              0.01     50.16      0  01:34       0.000     0.000
  YS02001890              0.18    290.97      0  01:38       0.107     0.000
  YS02001898              0.01      0.18      0  01:48       0.000     0.000
  YS02001901              0.01      0.10      0  01:48       0.000     0.000
  YS02001907              0.44   1793.07      0  01:39       1.465     0.000
  YS02001918              0.01    192.14      0  01:36       0.003     0.000
  YS02001920              0.01     49.60      0  01:36       0.000     0.000
  YS02001923              0.01     67.36      0  01:36       0.000     0.000
  YS02001926              0.01    400.10      0  01:36       0.004     0.000
  YS02001929              0.01    911.23      0  01:36       0.004     0.000
  YS02163601              0.01      2.14      0  02:13       0.000     0.000
  
  
  **********************
  Storage Volume Summary
  **********************
  
  ------------------------------------------------------------------------------------------------
                         Average    Avg   Evap  Exfil     Maximum    Max    Time of Max    Maximum
                          Volume   Pcnt   Pcnt   Pcnt      Volume   Pcnt     Occurrence    Outflow
  Storage Unit           1000 m³   Full   Loss   Loss     1000 m³   Full    days hr:min        LPS
  ------------------------------------------------------------------------------------------------
  CC-storage               2.569   40.1    0.0    0.0       4.818   75.2       0  02:20    1783.53
  JK-storage               0.141   48.4    0.0    0.0       0.213   73.2       0  01:40    2300.00
  
  
  ***********************
  Outfall Loading Summary
  ***********************
  
  -----------------------------------------------------------
                         Flow       Avg       Max       Total
                         Freq      Flow      Flow      Volume
  Outfall Node           Pcnt       LPS       LPS    10^6 ltr
  -----------------------------------------------------------
  CC-1                  25.49    683.00    683.00       3.906
  CC-2                  24.10    683.00    683.00       3.715
  JK-1                  11.33   1000.00   1000.00       2.440
  JK-2                   5.06   1000.00   1000.00       1.076
  WSC                   99.95    305.82    556.28       6.848
  -----------------------------------------------------------
  System                33.19   3671.82   3915.73      17.985
  
  
  ********************
  Link Flow Summary
  ********************
  
  -----------------------------------------------------------------------------
                                 Maximum  Time of Max   Maximum    Max/    Max/
                                  |Flow|   Occurrence   |Veloc|    Full    Full
  Link                 Type          LPS  days hr:min     m/sec    Flow   Depth
  -----------------------------------------------------------------------------
  1                    CONDUIT    556.28     0  03:07      2.83    0.19    0.30
  WS02003060WS02003069 CONDUIT    554.66     0  03:05      1.64    0.22    0.34
  WS02003066WSF200     CONDUIT    538.10     0  03:04      2.85    0.09    0.22
  WS02003067WS02003066 CONDUIT    538.05     0  03:04      1.21    0.17    0.42
  WS02003069WS02003072 CONDUIT    554.71     0  03:06      1.37    0.27    0.39
  WS02003072WS02003073 CONDUIT    554.58     0  03:06      1.44    1.20    0.37
  WS02004401WS02004402 CONDUIT    541.41     0  03:02      0.98    0.65    0.89
  WS02004402WS02004403 CONDUIT    542.77     0  03:02      0.97    0.78    0.91
  WS02004403WS02004404 CONDUIT    561.17     0  03:06      0.92    0.41    0.96
  WS02004404WS02004405 CONDUIT    601.21     0  03:02      1.08    5.89    0.98
  WS02004405WS02004406 CONDUIT    543.44     0  03:02      0.99    1.07    0.96
  WS02004406WS02004407 CONDUIT    539.74     0  03:02      1.04    0.24    0.63
  WS02004407WS02004409 CONDUIT    539.28     0  03:02      1.59    0.19    0.48
  WS02004409WS02004410 CONDUIT    538.78     0  03:03      1.05    0.70    0.68
  WS02004410WS02004411 CONDUIT    538.54     0  03:03      1.02    0.74    0.69
  WS02004411WS02004412 CONDUIT    538.32     0  03:03      0.99    0.76    0.69
  WS02004412WS02004413 CONDUIT    538.22     0  03:04      0.82    0.36    0.78
  WS02004413WS02003067 CONDUIT    537.98     0  03:04      1.11    0.23    0.59
  WS02006109WS02006110 CONDUIT    571.51     0  01:32      1.14    1.10    1.00
  WS02006110WS02006113 CONDUIT    572.04     0  02:46      1.39    0.52    0.79
  WS02006111WS02006112 CONDUIT    547.28     0  04:40      1.81    0.26    0.67
  WS02006112WS02006115 CONDUIT    550.88     0  02:47      0.89    0.33    0.88
  WS02006113WS02006111 CONDUIT    563.13     0  04:40      2.47    0.68    0.46
  WS02006115WS02006116 CONDUIT    539.06     0  02:39      1.15    0.69    0.78
  WS02006116WS02004401 CONDUIT    538.63     0  03:00      1.00    0.74    0.86
  WS02006228WS02006109 CONDUIT    568.70     0  01:32      1.13    2.48    1.00
  WS02006229WS02006228 CONDUIT    564.67     0  01:32      1.14    1.87    1.00
  WS02006230WS02006229 CONDUIT    564.40     0  01:32      1.47   12.56    1.00
  WS02006231WS02006230 CONDUIT    576.88     0  01:40      1.57    8.75    1.00
  WS02006232WS02006231 CONDUIT    576.66     0  02:10      1.51    1.21    1.00
  WS02006234WS02006232 CONDUIT    574.48     0  02:10      1.49    1.16    1.00
  WS02006235WS02006234 CONDUIT    569.90     0  02:10      1.48    6.01    1.00
  WS02006238WS02006235 CONDUIT    423.21     0  02:15      1.45    0.94    1.00
  WS02006239WS02006238 CONDUIT    422.81     0  01:45      1.10    1.35    1.00
  WS02006240WS02006239 CONDUIT    421.86     0  01:45      1.24    1.33    1.00
  WS02006242WS02006240 CONDUIT    419.36     0  02:15      1.13    1.67    1.00
  WS02006243WS02006242 CONDUIT    419.45     0  03:16      1.40    0.90    1.00
  WS02006245WS02006243 CONDUIT    418.90     0  03:16      1.45    1.24    1.00
  WS02006247WS02006245 CONDUIT    418.38     0  01:45      1.43    3.32    1.00
  WS02006248WS02006247 CONDUIT    418.59     0  01:45      1.44    0.91    1.00
  WS02006249WS02006248 CONDUIT    420.08     0  01:45      1.36    2.30    1.00
  WS02006251WS02006249 CONDUIT    459.02     0  00:00      1.99    1.32    1.00
  WS02006252WS02006251 CONDUIT    408.04     0  03:10     24.61    1.50    1.00
  WS02006256WS02006235 CONDUIT    288.91     0  00:00      4.23    3.06    1.00
  WSF200WS02003060     CONDUIT    538.28     0  03:05      2.06    0.12    0.28
  YS02001580YS02001583 CONDUIT    151.14     0  01:33      0.85    0.59    1.00
  YS02001583YS02001586 CONDUIT    196.70     0  01:34      0.87    0.30    1.00
  YS02001586YS02001590 CONDUIT    318.55     0  01:48      1.27    0.56    1.00
  YS02001590YS02001593 CONDUIT    318.17     0  01:48      1.13    2.00    1.00
  YS02001593YS02001596 CONDUIT    317.98     0  01:55      1.73    0.50    1.00
  YS02001596YS02001600 CONDUIT    318.00     0  02:05      1.22    0.62    1.00
  YS02001600YS02001601 CONDUIT    318.08     0  01:54      1.12    0.55    1.00
  YS02001601YS02001602 CONDUIT    572.42     0  01:33      2.02    2.07    1.00
  YS02001602YS02001605 CONDUIT    572.31     0  01:33      2.02   12.11    1.00
  YS02001605YS02001607 CONDUIT    572.28     0  01:33      2.02    3.14    1.00
  YS02001607YS02001610 CONDUIT    554.16     0  01:33      0.71    0.53    1.00
  YS02001610YS02001613 CONDUIT    563.27     0  01:33      0.72    0.65    1.00
  YS02001613YS02001616 CONDUIT    569.88     0  01:33      0.73    0.49    1.00
  YS02001616YS02001619 CONDUIT    496.09     0  01:34      0.69    0.86    1.00
  YS02001619YS02001622 CONDUIT    934.02     0  01:34      1.27    1.38    1.00
  YS02001622YS02001625 CONDUIT    939.09     0  01:34      1.20    0.50    1.00
  YS02001625YS02001629 CONDUIT    941.95     0  01:34      1.20    0.45    1.00
  YS02001629YS02163301 CONDUIT    908.92     0  01:35      1.16    1.12    1.00
  YS02001633YS02163601 CONDUIT   1444.72     0  01:35      1.84    1.52    1.00
  YS02001641YS02001644 CONDUIT   1438.49     0  01:35      1.83    4.65    1.00
  YS02001644YS02001647 CONDUIT   1955.47     0  01:35      2.49    1.15    1.00
  YS02001647YS02001649 CONDUIT   1935.47     0  01:35      2.46    1.02    1.00
  YS02001649YS02001757 CONDUIT   2195.83     0  01:36      2.80    1.33    1.00
  YS02001652YS02001649 CONDUIT    988.61     0  01:38      1.26    0.49    1.00
  YS02001655YS02001652 CONDUIT    987.36     0  01:38      1.52    0.48    1.00
  YS02001658YS02001655 CONDUIT    984.89     0  01:38      2.04    0.42    1.00
  YS02001661YS02001658 CONDUIT    982.37     0  01:38      2.44    0.39    1.00
  YS02001664YS02001661 CONDUIT    978.43     0  01:38      2.53    0.31    0.95
  YS02001745YS02001748 CONDUIT    664.86     0  01:37      2.42    0.26    1.00
  YS02001748YS02001751 CONDUIT    666.84     0  01:37      1.88    0.34    1.00
  YS02001751YS02001754 CONDUIT    668.19     0  01:37      1.58    0.32    1.00
  YS02001754YS02001757 CONDUIT    669.98     0  01:37      0.85    0.27    1.00
  YS02001757CaochengTiaoxuchi CONDUIT   3566.55     0  01:38      4.76    1.54    1.00
  YS02001759YS02001757 CONDUIT   1534.51     0  01:37      1.95    1.09    1.00
  YS02001762YS02001759 CONDUIT    851.18     0  01:37      1.08    0.98    1.00
  YS02001765YS02001762 CONDUIT    851.90     0  01:37      1.08    0.80    1.00
  YS02001767YS02001765 CONDUIT    855.41     0  01:37      1.09    1.08    1.00
  YS02001770YS02001767 CONDUIT    860.82     0  01:37      1.10    3.41    1.00
  YS02001774YS02001770 CONDUIT    477.00     0  01:36      0.61    0.30    1.00
  YS02001779YS02001774 CONDUIT    444.71     0  01:36      0.58    0.22    1.00
  YS02001783YS02001784 CONDUIT   1165.75     0  01:36      2.32    1.61    1.00
  YS02001784YS02001785 CONDUIT   1166.64     0  01:36      2.32    2.71    1.00
  YS02001786YS02001788 CONDUIT   1167.97     0  01:37      2.48    2.25    0.89
  YS02001788YS02001790 CONDUIT   1176.16     0  01:37      2.72    0.87    0.84
  YS02001790YS02001791 CONDUIT   1294.27     0  01:39      3.44    1.41    0.70
  YS02001791YS02001793 CONDUIT   1260.92     0  01:44      6.76    0.54    0.45
  YS02001793JiankangQianchi CONDUIT   1275.79     0  01:50      2.54    0.10    0.65
  YS02001882YS02001884 CONDUIT     92.84     0  01:34      0.17    0.11    1.00
  YS02001884YS02001887 CONDUIT    131.55     0  01:34      0.17    0.18    1.00
  YS02001887YS02001890 CONDUIT    808.98     0  01:38      1.03    1.38    1.00
  YS02001890YS02001895 CONDUIT    567.33     0  01:35      0.72    0.26    1.00
  YS02001895YS02001898 CONDUIT    573.45     0  01:35      0.73    1.00    1.00
  YS02001898YS02001901 CONDUIT    580.64     0  01:35      0.74    0.37    1.00
  YS02001901YS02001904 CONDUIT    583.17     0  01:35      0.74    0.90    1.00
  YS02001904YS02001907 CONDUIT    586.04     0  01:35      0.75    0.21    1.00
  YS02001907YS02006553 CONDUIT    791.36     0  02:03      0.88    0.93    1.00
  YS02001910YS02001907 CONDUIT   1370.53     0  01:39      1.75    0.77    1.00
  YS02001915YS02001910 CONDUIT   1370.79     0  01:39      1.75    0.68    1.00
  YS02001918YS02001915 CONDUIT    639.12     0  01:35      0.83    0.35    1.00
  YS02001920YS02001918 CONDUIT    625.63     0  01:35      0.80    0.61    1.00
  YS02001923YS02001920 CONDUIT    640.79     0  01:35      0.86    0.29    1.00
  YS02001926YS02001923 CONDUIT    871.15     0  01:35      1.33    1.24    1.00
  YS02001929YS02001926 CONDUIT    818.28     0  01:36      1.22    0.39    1.00
  YS02006553YS02006556 CONDUIT    790.70     0  02:03      1.01    0.68    1.00
  YS02006556YS02006558 CONDUIT    791.72     0  02:02      1.01    0.63    1.00
  YS02006558YS02006561 CONDUIT   1182.15     0  01:35      4.18    2.61    1.00
  YS02006561YS02001783 CONDUIT   1165.36     0  01:36      2.32    0.60    1.00
  YS02163301YS02001633 CONDUIT    908.71     0  01:35      1.16    0.85    1.00
  YS02163601YS02164001 CONDUIT   1443.15     0  01:35      1.84    1.28    1.00
  YS02164001YS02001641 CONDUIT   1439.59     0  01:35      1.83    1.97    1.00
  CC-R1                PUMP       683.00     0  00:00              1.00
  CC-R2                PUMP       683.00     0  00:00              1.00
  CC-S1                PUMP       200.00     0  00:00              1.00
  CC-S2                PUMP       200.00     0  00:00              1.00
  JK-R1                PUMP      1000.00     0  00:00              1.00
  JK-R2                PUMP      1000.00     0  00:00              1.00
  JK-S                 PUMP       300.00     0  00:00              1.00
  
  
  ***************************
  Flow Classification Summary
  ***************************
  
  -------------------------------------------------------------------------------------
                      Adjusted    ---------- Fraction of Time in Flow Class ---------- 
                       /Actual         Up    Down  Sub   Sup   Up    Down  Norm  Inlet 
  Conduit               Length    Dry  Dry   Dry   Crit  Crit  Crit  Crit  Ltd   Ctrl  
  -------------------------------------------------------------------------------------
  1                       1.00   0.00  0.00  0.00  0.00  1.00  0.00  0.00  0.38  0.00
  WS02003060WS02003069    1.00   0.00  0.00  0.00  0.99  0.01  0.00  0.00  0.54  0.00
  WS02003066WSF200        1.00   0.13  0.00  0.00  0.00  0.87  0.00  0.00  0.76  0.00
  WS02003067WS02003066    1.00   0.10  0.02  0.00  0.88  0.00  0.00  0.00  0.00  0.00
  WS02003069WS02003072    1.00   0.00  0.00  0.00  0.99  0.01  0.00  0.00  0.59  0.00
  WS02003072WS02003073    1.00   0.00  0.00  0.00  0.00  0.00  0.00  1.00  0.00  0.00
  WS02004401WS02004402    1.00   0.02  0.00  0.00  0.98  0.00  0.00  0.00  0.00  0.00
  WS02004402WS02004403    1.00   0.02  0.00  0.00  0.97  0.00  0.00  0.00  0.00  0.00
  WS02004403WS02004404    1.00   0.00  0.03  0.00  0.97  0.00  0.00  0.00  0.00  0.00
  WS02004404WS02004405    1.00   0.00  0.00  0.00  1.00  0.00  0.00  0.00  0.01  0.00
  WS02004405WS02004406    1.00   0.00  0.00  0.00  1.00  0.00  0.00  0.00  0.00  0.00
  WS02004406WS02004407    1.00   0.00  0.05  0.00  0.95  0.00  0.00  0.00  0.00  0.00
  WS02004407WS02004409    1.00   0.05  0.00  0.00  0.94  0.01  0.00  0.00  0.94  0.00
  WS02004409WS02004410    1.00   0.05  0.00  0.00  0.95  0.00  0.00  0.00  0.03  0.00
  WS02004410WS02004411    1.00   0.05  0.00  0.00  0.95  0.00  0.00  0.00  0.01  0.00
  WS02004411WS02004412    1.00   0.05  0.00  0.00  0.95  0.00  0.00  0.00  0.00  0.00
  WS02004412WS02004413    1.00   0.05  0.00  0.00  0.94  0.00  0.00  0.00  0.01  0.00
  WS02004413WS02003067    1.00   0.06  0.04  0.00  0.00  0.00  0.90  0.00  0.00  0.00
  WS02006109WS02006110    1.00   0.00  0.01  0.00  0.98  0.00  0.01  0.00  0.00  0.00
  WS02006110WS02006113    1.00   0.01  0.01  0.00  0.98  0.00  0.00  0.00  0.00  0.00
  WS02006111WS02006112    1.00   0.02  0.00  0.00  0.98  0.00  0.00  0.00  0.98  0.00
  WS02006112WS02006115    1.00   0.02  0.00  0.00  0.97  0.00  0.00  0.00  0.00  0.00
  WS02006113WS02006111    1.00   0.02  0.00  0.00  0.00  0.98  0.00  0.00  0.17  0.00
  WS02006115WS02006116    1.00   0.02  0.00  0.00  0.97  0.00  0.00  0.01  0.00  0.00
  WS02006116WS02004401    1.00   0.02  0.00  0.00  0.98  0.00  0.00  0.00  0.00  0.00
  WS02006228WS02006109    1.00   0.00  0.00  0.00  1.00  0.00  0.00  0.00  0.00  0.00
  WS02006229WS02006228    1.00   0.00  0.00  0.00  0.99  0.00  0.00  0.01  0.00  0.00
  WS02006230WS02006229    1.00   0.00  0.00  0.00  0.99  0.00  0.00  0.01  0.01  0.00
  WS02006231WS02006230    1.00   0.00  0.00  0.00  0.43  0.00  0.56  0.00  0.00  0.00
  WS02006232WS02006231    1.00   0.00  0.00  0.00  0.99  0.00  0.01  0.00  0.00  0.00
  WS02006234WS02006232    1.00   0.00  0.00  0.00  1.00  0.00  0.00  0.00  0.06  0.00
  WS02006235WS02006234    1.00   0.00  0.00  0.00  0.86  0.00  0.14  0.00  0.00  0.00
  WS02006238WS02006235    1.00   0.00  0.00  0.00  1.00  0.00  0.00  0.00  0.00  0.00
  WS02006239WS02006238    1.00   0.00  0.00  0.00  1.00  0.00  0.00  0.00  0.14  0.00
  WS02006240WS02006239    1.00   0.00  0.00  0.00  0.67  0.00  0.00  0.33  0.01  0.00
  WS02006242WS02006240    1.00   0.00  0.00  0.00  0.99  0.00  0.01  0.00  0.00  0.00
  WS02006243WS02006242    1.00   0.00  0.00  0.00  0.99  0.00  0.00  0.01  0.44  0.00
  WS02006245WS02006243    1.00   0.00  0.00  0.00  0.82  0.00  0.00  0.18  0.00  0.00
  WS02006247WS02006245    1.00   0.00  0.00  0.00  0.97  0.00  0.00  0.03  0.00  0.00
  WS02006248WS02006247    1.00   0.00  0.00  0.00  0.99  0.00  0.00  0.01  0.36  0.00
  WS02006249WS02006248    1.00   0.00  0.00  0.00  0.59  0.00  0.41  0.00  0.00  0.00
  WS02006251WS02006249    1.00   0.00  0.00  0.00  0.99  0.01  0.00  0.00  0.43  0.00
  WS02006252WS02006251    1.00   0.00  0.45  0.00  0.12  0.00  0.43  0.00  0.00  0.00
  WS02006256WS02006235    1.00   0.00  0.00  0.00  0.99  0.00  0.00  0.00  0.00  0.00
  WSF200WS02003060        1.00   0.00  0.13  0.00  0.25  0.63  0.00  0.00  0.39  0.00
  YS02001580YS02001583    1.00   0.19  0.58  0.00  0.22  0.00  0.00  0.00  0.67  0.00
  YS02001583YS02001586    1.00   0.41  0.30  0.00  0.28  0.00  0.00  0.00  0.68  0.00
  YS02001586YS02001590    1.00   0.13  0.00  0.00  0.44  0.04  0.00  0.40  0.33  0.00
  YS02001590YS02001593    1.00   0.13  0.01  0.00  0.15  0.00  0.72  0.00  0.00  0.00
  YS02001593YS02001596    1.00   0.13  0.00  0.00  0.17  0.01  0.00  0.68  0.02  0.00
  YS02001596YS02001600    1.00   0.13  0.00  0.00  0.23  0.01  0.00  0.63  0.03  0.00
  YS02001600YS02001601    1.00   0.13  0.01  0.00  0.86  0.00  0.00  0.00  0.59  0.00
  YS02001601YS02001602    1.00   0.13  0.01  0.00  0.87  0.00  0.00  0.00  0.00  0.00
  YS02001602YS02001605    1.00   0.13  0.00  0.00  0.87  0.00  0.00  0.00  0.00  0.00
  YS02001605YS02001607    1.00   0.13  0.00  0.00  0.87  0.00  0.00  0.00  0.00  0.00
  YS02001607YS02001610    1.00   0.13  0.01  0.00  0.86  0.00  0.00  0.00  0.01  0.00
  YS02001610YS02001613    1.00   0.13  0.00  0.00  0.87  0.00  0.00  0.00  0.00  0.00
  YS02001613YS02001616    1.00   0.13  0.00  0.00  0.87  0.00  0.00  0.00  0.00  0.00
  YS02001616YS02001619    1.00   0.13  0.00  0.00  0.87  0.00  0.00  0.00  0.00  0.00
  YS02001619YS02001622    1.00   0.13  0.00  0.00  0.87  0.00  0.00  0.00  0.28  0.00
  YS02001622YS02001625    1.00   0.13  0.00  0.00  0.87  0.00  0.00  0.00  0.03  0.00
  YS02001625YS02001629    1.00   0.13  0.04  0.00  0.20  0.00  0.64  0.00  0.00  0.00
  YS02001629YS02163301    1.00   0.15  0.01  0.00  0.85  0.00  0.00  0.00  0.00  0.00
  YS02001633YS02163601    1.00   0.00  0.01  0.00  0.99  0.00  0.00  0.00  0.14  0.00
  YS02001641YS02001644    1.00   0.00  0.01  0.00  0.99  0.00  0.00  0.00  0.00  0.00
  YS02001644YS02001647    1.00   0.00  0.16  0.00  0.84  0.00  0.00  0.00  0.00  0.00
  YS02001647YS02001649    1.00   0.00  0.16  0.00  0.60  0.24  0.00  0.00  0.54  0.00
  YS02001649YS02001757    1.00   0.00  0.00  0.00  0.86  0.14  0.00  0.00  0.37  0.00
  YS02001652YS02001649    1.00   0.00  0.00  0.00  0.97  0.03  0.00  0.00  0.70  0.00
  YS02001655YS02001652    1.00   0.00  0.00  0.00  0.23  0.01  0.00  0.76  0.05  0.00
  YS02001658YS02001655    1.00   0.00  0.14  0.00  0.70  0.16  0.00  0.00  0.66  0.00
  YS02001661YS02001658    1.00   0.14  0.00  0.00  0.54  0.32  0.00  0.00  0.70  0.00
  YS02001664YS02001661    1.00   0.13  0.00  0.00  0.76  0.12  0.00  0.00  0.85  0.00
  YS02001745YS02001748    1.00   0.00  0.00  0.00  0.14  0.01  0.00  0.85  0.06  0.00
  YS02001748YS02001751    1.00   0.00  0.00  0.00  0.86  0.14  0.00  0.00  0.77  0.00
  YS02001751YS02001754    1.00   0.00  0.00  0.00  0.20  0.00  0.00  0.80  0.02  0.00
  YS02001754YS02001757    1.00   0.00  0.00  0.00  1.00  0.00  0.00  0.00  0.75  0.00
  YS02001757CaochengTiaoxuchi    1.00   0.00  0.00  0.00  0.97  0.03  0.00  0.00  0.62  0.00
  YS02001759YS02001757    1.00   0.00  0.00  0.00  0.99  0.01  0.00  0.00  0.53  0.00
  YS02001762YS02001759    1.00   0.00  0.00  0.00  1.00  0.00  0.00  0.00  0.03  0.00
  YS02001765YS02001762    1.00   0.00  0.00  0.00  1.00  0.00  0.00  0.00  0.63  0.00
  YS02001767YS02001765    1.00   0.00  0.00  0.00  1.00  0.00  0.00  0.00  0.01  0.00
  YS02001770YS02001767    1.00   0.00  0.00  0.00  1.00  0.00  0.00  0.00  0.00  0.00
  YS02001774YS02001770    1.00   0.00  0.13  0.00  0.71  0.00  0.16  0.00  0.02  0.00
  YS02001779YS02001774    1.00   0.00  0.00  0.00  1.00  0.00  0.00  0.00  0.75  0.00
  YS02001783YS02001784    1.00   0.00  0.17  0.00  0.83  0.00  0.00  0.00  0.55  0.00
  YS02001784YS02001785    1.00   0.00  0.00  0.00  1.00  0.00  0.00  0.00  0.15  0.00
  YS02001786YS02001788    1.00   0.00  0.00  0.00  0.79  0.21  0.00  0.00  0.00  0.00
  YS02001788YS02001790    1.00   0.00  0.00  0.00  0.21  0.79  0.00  0.00  0.78  0.00
  YS02001790YS02001791    1.00   0.00  0.00  0.00  0.01  0.99  0.00  0.00  0.17  0.00
  YS02001791YS02001793    1.00   0.00  0.00  0.00  0.00  1.00  0.00  0.00  0.01  0.00
  YS02001793JiankangQianchi    1.00   0.00  0.00  0.00  0.96  0.04  0.00  0.00  0.97  0.00
  YS02001882YS02001884    1.00   0.15  0.01  0.00  0.85  0.00  0.00  0.00  0.00  0.00
  YS02001884YS02001887    1.00   0.06  0.05  0.00  0.89  0.00  0.00  0.00  0.00  0.00
  YS02001887YS02001890    1.00   0.00  0.00  0.00  0.97  0.00  0.03  0.00  0.00  0.00
  YS02001890YS02001895    1.00   0.00  0.15  0.00  0.85  0.00  0.00  0.00  0.00  0.00
  YS02001895YS02001898    1.00   0.15  0.00  0.00  0.83  0.00  0.01  0.00  0.00  0.00
  YS02001898YS02001901    1.00   0.16  0.00  0.00  0.84  0.00  0.00  0.00  0.01  0.00
  YS02001901YS02001904    1.00   0.16  0.00  0.00  0.84  0.00  0.00  0.00  0.00  0.00
  YS02001904YS02001907    1.00   0.00  0.15  0.00  0.84  0.00  0.00  0.00  0.00  0.00
  YS02001907YS02006553    1.00   0.00  0.02  0.00  0.98  0.00  0.00  0.00  0.00  0.00
  YS02001910YS02001907    1.00   0.00  0.00  0.00  0.97  0.00  0.00  0.03  0.12  0.00
  YS02001915YS02001910    1.00   0.00  0.00  0.00  0.97  0.03  0.00  0.00  0.13  0.00
  YS02001918YS02001915    1.00   0.00  0.01  0.00  0.98  0.02  0.00  0.00  0.72  0.00
  YS02001920YS02001918    1.00   0.00  0.01  0.00  0.99  0.00  0.00  0.00  0.00  0.00
  YS02001923YS02001920    1.00   0.00  0.00  0.00  1.00  0.00  0.00  0.00  0.91  0.00
  YS02001926YS02001923    1.00   0.00  0.07  0.00  0.08  0.00  0.85  0.00  0.00  0.00
  YS02001929YS02001926    1.00   0.00  0.13  0.00  0.87  0.00  0.00  0.00  0.81  0.00
  YS02006553YS02006556    1.00   0.01  0.00  0.00  0.99  0.00  0.00  0.00  0.03  0.00
  YS02006556YS02006558    1.00   0.00  0.00  0.00  1.00  0.00  0.00  0.00  0.00  0.00
  YS02006558YS02006561    1.00   0.16  0.00  0.00  0.07  0.76  0.00  0.00  0.18  0.00
  YS02006561YS02001783    1.00   0.16  0.00  0.00  0.11  0.73  0.00  0.00  0.67  0.00
  YS02163301YS02001633    1.00   0.00  0.14  0.00  0.86  0.00  0.00  0.00  0.00  0.00
  YS02163601YS02164001    1.00   0.00  0.08  0.00  0.92  0.00  0.00  0.00  0.00  0.00
  YS02164001YS02001641    1.00   0.01  0.07  0.00  0.92  0.00  0.00  0.00  0.05  0.00
  
  
  *************************
  Conduit Surcharge Summary
  *************************
  
  ----------------------------------------------------------------------------
                                                           Hours        Hours 
                         --------- Hours Full --------   Above Full   Capacity
  Conduit                Both Ends  Upstream  Dnstream   Normal Flow   Limited
  ----------------------------------------------------------------------------
  WS02003072WS02003073        0.01      0.01      0.01      1.13         0.01
  WS02004403WS02004404        0.01      0.01      0.01      0.01         0.01
  WS02004404WS02004405        0.01      0.01      0.01      4.07         0.01
  WS02004405WS02004406        0.01      0.01      0.01      0.65         0.01
  WS02006109WS02006110        0.81      0.81      3.21      0.90         0.01
  WS02006110WS02006113        0.01      0.01      3.12      0.01         0.01
  WS02006111WS02006112        0.01      0.01      3.82      0.01         0.01
  WS02006112WS02006115        0.01      0.01      0.87      0.01         0.01
  WS02006228WS02006109        3.03      3.21      3.03      3.89         3.03
  WS02006229WS02006228        3.01      3.05      3.01      3.62         3.00
  WS02006230WS02006229        3.37      3.56      3.37      4.57         3.37
  WS02006231WS02006230        0.81      0.81      0.95      4.33         0.01
  WS02006232WS02006231        0.92      0.92      3.20      0.99         0.01
  WS02006234WS02006232        2.96      2.96      3.20      0.98         0.97
  WS02006235WS02006234        1.16      1.17      3.02      4.20         0.02
  WS02006238WS02006235        3.06      3.06      3.23      0.01         0.01
  WS02006239WS02006238        3.11      3.19      3.11      3.52         2.96
  WS02006240WS02006239        3.03      3.08      3.03      3.50         2.85
  WS02006242WS02006240        3.04      3.04      3.36      3.75         0.01
  WS02006243WS02006242        3.10      3.10      3.27      0.01         0.03
  WS02006245WS02006243        3.07      3.09      3.08      2.64         2.26
  WS02006247WS02006245        3.07      3.15      3.07      4.01         3.06
  WS02006248WS02006247        3.07      3.07      3.12      0.01         0.03
  WS02006249WS02006248        3.05      3.05      3.09      4.00         0.01
  WS02006251WS02006249        3.09      3.11      3.09      3.56         3.03
  WS02006252WS02006251        3.63      3.63      3.65      3.63         0.01
  WS02006256WS02006235        4.22      4.26      7.00      1.13         0.01
  YS02001580YS02001583        0.77      0.78      0.85      0.01         0.01
  YS02001583YS02001586        0.78      0.78      0.98      0.01         0.01
  YS02001586YS02001590        0.99      0.99      1.07      0.01         0.01
  YS02001590YS02001593        1.07      1.07      1.09      1.15         0.01
  YS02001593YS02001596        1.08      1.08      1.20      0.01         0.01
  YS02001596YS02001600        1.25      1.25      1.38      0.01         0.01
  YS02001600YS02001601        1.46      1.46      1.70      0.01         0.01
  YS02001601YS02001602        1.63      1.63      1.73      1.38         0.01
  YS02001602YS02001605        1.59      1.59      1.63      2.37         0.01
  YS02001605YS02001607        1.55      1.59      1.55      1.68         1.55
  YS02001607YS02001610        1.06      1.06      1.10      0.01         0.01
  YS02001610YS02001613        1.06      1.06      1.10      0.01         0.01
  YS02001613YS02001616        1.02      1.02      1.06      0.01         0.01
  YS02001616YS02001619        1.00      1.00      1.02      0.01         0.01
  YS02001619YS02001622        1.00      1.00      1.00      1.05         0.93
  YS02001622YS02001625        1.00      1.00      1.21      0.01         0.01
  YS02001625YS02001629        0.93      0.93      1.21      0.01         0.01
  YS02001629YS02163301        1.21      1.21      1.22      0.02         0.15
  YS02001633YS02163601        1.24      1.24      1.28      0.38         0.35
  YS02001641YS02001644        1.17      1.19      1.17      1.75         1.16
  YS02001644YS02001647        0.94      0.94      1.17      0.04         0.01
  YS02001647YS02001649        0.94      0.94      1.10      0.01         0.01
  YS02001649YS02001757        1.09      1.10      1.19      0.05         0.08
  YS02001652YS02001649        0.89      0.89      1.10      0.01         0.01
  YS02001655YS02001652        0.56      0.56      0.86      0.01         0.01
  YS02001658YS02001655        0.27      0.27      0.56      0.01         0.01
  YS02001661YS02001658        0.02      0.02      0.27      0.01         0.01
  YS02001664YS02001661        0.01      0.01      0.05      0.01         0.01
  YS02001745YS02001748        0.01      0.01      0.18      0.01         0.01
  YS02001748YS02001751        0.23      0.23      0.40      0.01         0.01
  YS02001751YS02001754        0.40      0.40      0.73      0.01         0.01
  YS02001754YS02001757        0.79      0.79      1.19      0.01         0.01
  YS02001757CaochengTiaoxuchi        1.11      1.19      2.32      0.44         0.34
  YS02001759YS02001757        1.08      1.08      1.19      0.02         0.04
  YS02001762YS02001759        1.04      1.04      1.08      0.01         0.02
  YS02001765YS02001762        0.98      0.98      1.04      0.01         0.01
  YS02001767YS02001765        0.93      0.93      0.98      0.01         0.03
  YS02001770YS02001767        0.93      0.93      0.93      0.66         0.61
  YS02001774YS02001770        0.90      0.90      1.01      0.01         0.01
  YS02001779YS02001774        0.70      0.70      1.01      0.01         0.01
  YS02001783YS02001784        0.64      0.67      0.64      0.83         0.64
  YS02001784YS02001785        0.53      0.64      0.53      1.15         0.53
  YS02001786YS02001788        0.01      0.53      0.01      0.95         0.01
  YS02001790YS02001791        0.01      0.01      0.01      0.63         0.01
  YS02001793JiankangQianchi        0.01      0.01      7.70      0.01         0.01
  YS02001882YS02001884        0.60      0.60      0.61      0.01         0.01
  YS02001884YS02001887        0.64      0.64      0.66      0.01         0.01
  YS02001887YS02001890        0.67      0.67      0.68      0.14         0.01
  YS02001890YS02001895        0.59      0.59      0.70      0.01         0.01
  YS02001895YS02001898        0.58      0.58      0.59      0.01         0.01
  YS02001898YS02001901        0.59      0.59      0.64      0.01         0.01
  YS02001901YS02001904        0.63      0.63      0.64      0.01         0.01
  YS02001904YS02001907        0.63      0.63      0.93      0.01         0.01
  YS02001907YS02006553        1.17      1.17      1.26      0.01         0.01
  YS02001910YS02001907        0.70      0.70      0.89      0.01         0.01
  YS02001915YS02001910        0.60      0.60      0.70      0.01         0.01
  YS02001918YS02001915        0.51      0.51      0.60      0.01         0.01
  YS02001920YS02001918        0.51      0.51      0.52      0.01         0.01
  YS02001923YS02001920        0.46      0.46      0.52      0.01         0.01
  YS02001926YS02001923        0.11      0.11      0.15      0.01         0.01
  YS02001929YS02001926        0.01      0.01      0.15      0.01         0.01
  YS02006553YS02006556        0.79      0.79      0.92      0.01         0.01
  YS02006556YS02006558        0.85      0.85      0.96      0.01         0.01
  YS02006558YS02006561        0.55      0.79      0.55      1.08         0.55
  YS02006561YS02001783        0.47      0.47      0.67      0.01         0.01
  YS02163301YS02001633        1.22      1.22      1.26      0.01         0.01
  YS02163601YS02164001        1.19      1.19      1.28      0.04         0.01
  YS02164001YS02001641        1.19      1.19      1.19      0.90         0.86
  
  
  ***************
  Pumping Summary
  ***************
  
  ---------------------------------------------------------------------------------------------------------
                                                  Min       Avg       Max     Total     Power    % Time Off
                        Percent   Number of      Flow      Flow      Flow    Volume     Usage    Pump Curve
  Pump                 Utilized   Start-Ups       LPS       LPS       LPS  10^6 ltr     Kw-hr    Low   High
  ---------------------------------------------------------------------------------------------------------
  CC-R1                   19.86           3      0.00    683.00    683.00     3.907     74.18    0.0    9.5
  CC-R2                   18.89           3      0.00    683.00    683.00     3.716     70.63    0.0   10.0
  CC-S1                   48.94          16      0.00    200.00    200.00     2.819     16.89    0.0    0.0
  CC-S2                   47.93          19      0.00    200.00    200.00     2.761     16.64    0.0    0.0
  JK-R1                    8.47          13      0.00   1000.00   1000.00     2.439     23.65    0.0    0.0
  JK-R2                    3.74          11      0.00   1000.00   1000.00     1.076      9.24    0.0    0.0
  JK-S                    14.09          14      0.00    300.00    300.00     1.217     19.84    0.0    0.0
  

  Analysis begun on:  Wed Jan 15 10:41:21 2025
  Analysis ended on:  Wed Jan 15 10:41:23 2025
  Total elapsed time: 00:00:02