
  EPA STORM WATER MANAGEMENT MODEL - VERSION 5.2 (Build 5.2.4)
  PYSWMM TOOLKIT API - VERSION v1.0 (2023-11-27)
  ------------------------------------------------------------

  WARNING 04: minimum elevation drop used for Conduit WS02004404WS02004405
  WARNING 03: negative offset ignored for Link YS02001904YS02001907
  
  ****************
  Analysis Options
  ****************
  Flow Units ............... LPS
  Process Models:
    Rainfall/Runoff ........ YES
    RDII ................... NO
    Snowmelt ............... NO
    Groundwater ............ NO
    Flow Routing ........... YES
    Ponding Allowed ........ NO
    Water Quality .......... NO
  Infiltration Method ...... HORTON
  Flow Routing Method ...... DYNWAVE
  Surcharge Method ......... EXTRAN
  Starting Date ............ 08/28/2015 08:00:00
  Ending Date .............. 08/28/2015 16:00:00
  Antecedent Dry Days ...... 8.0
  Report Time Step ......... 00:01:00
  Wet Time Step ............ 00:01:00
  Dry Time Step ............ 00:01:00
  Routing Time Step ........ 30.00 sec
  Variable Time Step ....... YES
  Maximum Trials ........... 8
  Number of Threads ........ 4
  Head Tolerance ........... 0.001500 m
  
  
  **************************        Volume         Depth
  Runoff Quantity Continuity     hectare-m            mm
  **************************     ---------       -------
  Total Precipitation ......         1.900        57.282
  Evaporation Loss .........         0.000         0.000
  Infiltration Loss ........         0.099         2.978
  Surface Runoff ...........         1.769        53.322
  Final Storage ............         0.033         0.995
  Continuity Error (%) .....        -0.022
  
  
  **************************        Volume        Volume
  Flow Routing Continuity        hectare-m      10^6 ltr
  **************************     ---------     ---------
  Dry Weather Inflow .......         0.025         0.251
  Wet Weather Inflow .......         1.769        17.687
  Groundwater Inflow .......         0.000         0.000
  RDII Inflow ..............         0.000         0.000
  External Inflow ..........         0.083         0.834
  External Outflow .........         1.455        14.547
  Flooding Loss ............         0.479         4.794
  Evaporation Loss .........         0.000         0.000
  Exfiltration Loss ........         0.000         0.000
  Initial Stored Volume ....         0.243         2.431
  Final Stored Volume ......         0.192         1.918
  Continuity Error (%) .....        -0.269
  
  
  *************************
  Highest Continuity Errors
  *************************
  Node YS02001884 (5.50%)
  Node YS02001583 (-4.66%)
  
  
  ***************************
  Time-Step Critical Elements
  ***************************
  Link WS02006252WS02006251 (36.18%)
  Link WS02006238WS02006235 (21.60%)
  Link WS02004404WS02004405 (10.62%)
  Link WS02006235WS02006234 (8.75%)
  Link YS02001791YS02001793 (6.18%)
  
  
  ********************************
  Highest Flow Instability Indexes
  ********************************
  Link WS02006113WS02006111 (51)
  Link WS02006111WS02006112 (26)
  Link WS02006238WS02006235 (16)
  Link WS02006252WS02006251 (14)
  Link WS02006256WS02006235 (13)
  
  
  *********************************
  Most Frequent Nonconverging Nodes
  *********************************
  Node CC-1 (10.61%)
  Node CC-2 (10.61%)
  Node JK-1 (10.61%)
  Node JK-2 (10.61%)
  Node WSC (10.61%)
  
  
  *************************
  Routing Time Step Summary
  *************************
  Minimum Time Step           :     0.00 sec
  Average Time Step           :     2.06 sec
  Maximum Time Step           :     7.04 sec
  % of Time in Steady State   :     0.00
  Average Iterations per Step :     2.95
  % of Steps Not Converging   :    10.61
  Time Step Frequencies       :
     30.000 - 13.228 sec      :     0.00 %
     13.228 -  5.833 sec      :     7.63 %
      5.833 -  2.572 sec      :    23.11 %
      2.572 -  1.134 sec      :    24.11 %
      1.134 -  0.500 sec      :    45.15 %
  
  
  ***************************
  Subcatchment Runoff Summary
  ***************************
  
  ------------------------------------------------------------------------------------------------------------------------------
                            Total      Total      Total      Total     Imperv       Perv      Total       Total     Peak  Runoff
                           Precip      Runon       Evap      Infil     Runoff     Runoff     Runoff      Runoff   Runoff   Coeff
  Subcatchment                 mm         mm         mm         mm         mm         mm         mm    10^6 ltr      LPS
  ------------------------------------------------------------------------------------------------------------------------------
  sub60                     57.28       0.00       0.00       1.78      49.20       5.09      54.30        0.71   509.23   0.948
  sub61                     57.28       0.00       0.00       2.59      46.41       7.16      53.57        0.98   707.38   0.935
  sub62                     57.28       0.00       0.00       1.19      51.41       3.40      54.81        1.50   989.92   0.957
  sub63                     57.28       0.00       0.00       4.79      39.70      11.82      51.52        1.17   790.65   0.899
  sub64                     57.28       0.00       0.00       2.42      47.48       6.18      53.66        1.29   809.38   0.937
  sub65                     57.28       0.00       0.00       2.09      48.58       5.36      53.94        1.48   903.77   0.942
  sub66                     57.28       0.00       0.00       5.95      39.59      10.67      50.26        2.34  1178.22   0.877
  sub67                     57.28       0.00       0.00       1.14      51.45       3.44      54.90        1.02   769.90   0.958
  sub68                     57.28       0.00       0.00       2.14      48.07       5.88      53.95        1.48  1012.92   0.942
  sub69                     57.28       0.00       0.00       1.91      48.58       6.68      55.26        2.05  1201.55   0.965
  sub70                     57.28       0.00       0.00       6.40      37.64      13.08      50.72        1.47   660.88   0.885
  sub71                     57.28       0.00       0.00       1.22      51.37       3.36      54.74        1.43   874.94   0.956
  sub72                     57.28       0.00       0.00       1.09      51.87       2.92      54.79        0.75   421.38   0.957
  
  
  ******************
  Node Depth Summary
  ******************
  
  ---------------------------------------------------------------------------------
                                 Average  Maximum  Maximum  Time of Max    Reported
                                   Depth    Depth      HGL   Occurrence   Max Depth
  Node                 Type       Meters   Meters   Meters  days hr:min      Meters
  ---------------------------------------------------------------------------------
  WS02003060           JUNCTION     0.25     0.38     5.31     0  02:48        0.38
  WS02003066           JUNCTION     0.21     0.30     5.85     0  02:48        0.30
  WS02003067           JUNCTION     0.52     0.70     6.02     0  02:48        0.70
  WS02003069           JUNCTION     0.28     0.43     5.01     0  02:49        0.43
  WS02003072           JUNCTION     0.34     0.50     4.87     0  02:49        0.50
  WS02003073           JUNCTION     0.19     0.30     4.36     0  02:50        0.30
  WS02004401           JUNCTION     0.62     0.85     6.85     0  03:03        0.85
  WS02004402           JUNCTION     0.65     0.87     6.83     0  03:04        0.87
  WS02004403           JUNCTION     0.67     0.89     6.82     0  03:04        0.89
  WS02004404           JUNCTION     0.75     0.96     6.81     0  03:04        0.96
  WS02004405           JUNCTION     0.75     0.95     6.80     0  03:04        0.95
  WS02004406           JUNCTION     0.76     0.95     6.78     0  03:04        0.95
  WS02004407           JUNCTION     0.19     0.29     6.61     0  03:05        0.29
  WS02004409           JUNCTION     0.43     0.66     6.43     0  02:46        0.66
  WS02004410           JUNCTION     0.45     0.68     6.40     0  02:47        0.68
  WS02004411           JUNCTION     0.47     0.69     6.37     0  02:47        0.69
  WS02004412           JUNCTION     0.48     0.69     6.33     0  02:47        0.69
  WS02004413           JUNCTION     0.64     0.85     6.32     0  02:47        0.85
  WS02006109           JUNCTION     0.69     1.17     7.79     0  02:26        1.09
  WS02006110           JUNCTION     0.69     1.18     7.76     0  02:26        1.06
  WS02006111           JUNCTION     0.19     0.29     6.99     0  05:15        0.29
  WS02006112           JUNCTION     0.78     1.07     6.95     0  03:06        1.05
  WS02006113           JUNCTION     0.30     0.46     7.35     0  05:14        0.45
  WS02006115           JUNCTION     0.51     0.75     6.89     0  02:45        0.75
  WS02006116           JUNCTION     0.59     0.83     6.87     0  02:45        0.83
  WS02006228           JUNCTION     0.69     1.27     7.92     0  02:26        1.27
  WS02006229           JUNCTION     0.66     1.37     8.06     0  02:26        1.37
  WS02006230           JUNCTION     0.67     1.50     8.25     0  02:26        1.34
  WS02006231           JUNCTION     0.46     1.28     8.40     0  02:26        1.28
  WS02006232           JUNCTION     0.60     1.47     8.51     0  02:26        1.47
  WS02006234           JUNCTION     0.53     1.44     8.60     0  02:35        1.38
  WS02006235           JUNCTION     0.57     1.70     8.87     0  02:35        1.36
  WS02006238           JUNCTION     0.60     1.77     8.91     0  02:35        1.39
  WS02006239           JUNCTION     0.57     1.73     8.94     0  02:35        1.40
  WS02006240           JUNCTION     0.54     1.62     8.92     0  02:35        1.37
  WS02006242           JUNCTION     0.61     1.55     8.82     0  02:35        1.44
  WS02006243           JUNCTION     0.52     1.42     8.84     0  02:35        1.32
  WS02006245           JUNCTION     0.52     1.33     8.81     0  02:35        1.25
  WS02006247           JUNCTION     0.54     1.27     8.77     0  02:35        1.22
  WS02006248           JUNCTION     0.50     1.10     8.69     0  02:26        1.10
  WS02006249           JUNCTION     0.53     1.09     8.69     0  02:15        1.09
  WS02006251           JUNCTION     0.53     1.45     9.12     0  02:15        1.13
  WS02006252           JUNCTION     0.38     1.50     9.74     0  00:00        0.71
  WS02006256           JUNCTION     0.98     2.35     9.28     0  00:00        2.35
  WSF200               JUNCTION     0.18     0.29     5.52     0  02:48        0.29
  YS02001580           JUNCTION     0.07     1.05     9.59     0  02:05        0.77
  YS02001583           JUNCTION     0.10     1.04     9.53     0  02:05        0.82
  YS02001586           JUNCTION     0.17     1.13     9.30     0  02:05        1.13
  YS02001590           JUNCTION     0.26     1.39     9.26     0  02:05        1.37
  YS02001593           JUNCTION     0.19     1.31     9.17     0  02:05        1.28
  YS02001596           JUNCTION     0.26     1.67     9.09     0  02:05        1.65
  YS02001600           JUNCTION     0.33     1.87     9.00     0  02:05        1.87
  YS02001601           JUNCTION     0.52     2.06     8.90     0  02:04        2.06
  YS02001602           JUNCTION     0.44     1.87     8.77     0  02:05        1.87
  YS02001605           JUNCTION     0.41     1.78     8.68     0  02:05        1.78
  YS02001607           JUNCTION     0.41     1.68     8.53     0  02:22        1.68
  YS02001610           JUNCTION     0.45     1.68     8.48     0  02:05        1.68
  YS02001613           JUNCTION     0.41     1.68     8.52     0  02:22        1.66
  YS02001616           JUNCTION     0.34     1.61     8.52     0  02:22        1.60
  YS02001619           JUNCTION     0.31     1.61     8.54     0  02:22        1.60
  YS02001622           JUNCTION     0.30     1.59     8.49     0  02:22        1.57
  YS02001625           JUNCTION     0.57     1.78     8.38     0  02:07        1.78
  YS02001629           JUNCTION     0.42     1.85     8.40     0  02:09        1.85
  YS02001633           JUNCTION     0.50     2.01     8.46     0  02:11        2.01
  YS02001641           JUNCTION     0.49     2.00     8.44     0  02:22        2.00
  YS02001644           JUNCTION     0.49     1.92     8.35     0  02:10        1.92
  YS02001647           JUNCTION     0.27     1.76     8.37     0  02:11        1.72
  YS02001649           JUNCTION     0.31     2.00     8.39     0  02:11        1.93
  YS02001652           JUNCTION     0.20     1.89     8.48     0  02:11        1.74
  YS02001655           JUNCTION     0.15     1.75     8.60     0  02:10        1.53
  YS02001658           JUNCTION     0.11     1.67     8.81     0  02:10        1.28
  YS02001661           JUNCTION     0.14     1.43     8.83     0  02:11        1.07
  YS02001664           JUNCTION     0.05     0.58     8.50     0  02:11        0.48
  YS02001745           JUNCTION     0.06     0.77     8.29     0  02:12        0.77
  YS02001748           JUNCTION     0.11     1.71     8.78     0  02:10        1.20
  YS02001751           JUNCTION     0.13     1.69     8.57     0  02:10        1.38
  YS02001754           JUNCTION     0.17     1.73     8.34     0  02:10        1.64
  YS02001757           JUNCTION     0.33     1.99     8.25     0  02:11        1.97
  YS02001759           JUNCTION     0.27     1.97     8.34     0  02:11        1.95
  YS02001762           JUNCTION     0.26     1.95     8.35     0  02:11        1.94
  YS02001765           JUNCTION     0.24     1.92     8.37     0  02:11        1.90
  YS02001767           JUNCTION     0.24     1.90     8.39     0  02:11        1.89
  YS02001770           JUNCTION     0.25     1.93     8.42     0  02:12        1.93
  YS02001774           JUNCTION     0.32     1.98     8.40     0  02:12        1.98
  YS02001779           JUNCTION     0.16     1.68     8.37     0  02:08        1.68
  YS02001783           JUNCTION     0.23     1.29     7.43     0  02:22        1.29
  YS02001784           JUNCTION     0.24     1.15     7.22     0  02:08        1.12
  YS02001786           JUNCTION     0.20     0.90     6.93     0  02:08        0.87
  YS02001788           JUNCTION     0.15     0.62     6.60     0  02:10        0.62
  YS02001790           JUNCTION     0.17     0.72     6.37     0  02:15        0.72
  YS02001791           JUNCTION     0.11     0.44     5.91     0  02:14        0.43
  YS02001793           JUNCTION     0.06     0.31     5.14     0  02:15        0.29
  YS02001882           JUNCTION     0.29     1.83     8.55     0  02:22        1.83
  YS02001884           JUNCTION     0.38     1.93     8.55     0  02:22        1.93
  YS02001887           JUNCTION     0.45     1.93     8.47     0  02:22        1.93
  YS02001890           JUNCTION     0.49     1.81     8.32     0  02:08        1.81
  YS02001895           JUNCTION     0.25     1.75     8.50     0  02:22        1.75
  YS02001898           JUNCTION     0.26     1.77     8.51     0  02:22        1.77
  YS02001901           JUNCTION     0.38     1.87     8.48     0  02:22        1.87
  YS02001904           JUNCTION     0.36     1.77     8.40     0  02:22        1.77
  YS02001907           JUNCTION     0.68     1.96     8.25     0  02:08        1.96
  YS02001910           JUNCTION     0.48     1.95     8.46     0  02:09        1.87
  YS02001915           JUNCTION     0.29     1.91     8.62     0  02:09        1.76
  YS02001918           JUNCTION     0.14     1.81     8.88     0  02:09        1.44
  YS02001920           JUNCTION     0.22     2.14     9.15     0  02:09        1.52
  YS02001923           JUNCTION     0.11     2.03     9.29     0  02:09        1.28
  YS02001926           JUNCTION     0.15     1.90     9.35     0  02:09        1.11
  YS02001929           JUNCTION     0.08     1.78     9.47     0  02:09        0.87
  YS02006553           JUNCTION     0.69     1.98     8.26     0  02:11        1.98
  YS02006556           JUNCTION     0.66     1.96     8.27     0  02:11        1.95
  YS02006558           JUNCTION     0.70     2.01     8.28     0  02:11        2.00
  YS02006561           JUNCTION     0.14     0.96     7.62     0  02:08        0.90
  YS02163301           JUNCTION     0.45     1.91     8.43     0  02:11        1.91
  YS02163601           JUNCTION     0.54     2.03     8.43     0  02:10        2.01
  YS02164001           JUNCTION     0.48     1.95     8.40     0  02:10        1.94
  CC-1                 OUTFALL      0.00     0.00     0.00     0  00:00        0.00
  CC-2                 OUTFALL      0.00     0.00     0.00     0  00:00        0.00
  JK-1                 OUTFALL      0.00     0.00     0.00     0  00:00        0.00
  JK-2                 OUTFALL      0.00     0.00     0.00     0  00:00        0.00
  WSC                  OUTFALL      0.19     0.30     0.97     0  02:50        0.30
  CC-storage           STORAGE      0.82     1.64     7.14     0  02:36        1.64
  JK-storage           STORAGE      2.71     4.24     5.04     0  02:25        4.16
  
  
  *******************
  Node Inflow Summary
  *******************
  
  -------------------------------------------------------------------------------------------------
                                  Maximum  Maximum                  Lateral       Total        Flow
                                  Lateral    Total  Time of Max      Inflow      Inflow     Balance
                                   Inflow   Inflow   Occurrence      Volume      Volume       Error
  Node                 Type           LPS      LPS  days hr:min    10^6 ltr    10^6 ltr     Percent
  -------------------------------------------------------------------------------------------------
  WS02003060           JUNCTION     16.53   548.33     0  02:48       0.476        6.24       0.043
  WS02003066           JUNCTION      0.00   531.37     0  02:48           0        5.77       0.027
  WS02003067           JUNCTION      0.00   531.27     0  02:48           0        5.77       0.076
  WS02003069           JUNCTION      0.32   548.24     0  02:49     0.00922        6.25       0.074
  WS02003072           JUNCTION      0.00   547.75     0  02:49           0        6.24       0.127
  WS02003073           JUNCTION      1.82   549.29     0  02:49      0.0524        6.29       0.111
  WS02004401           JUNCTION      0.00   537.14     0  03:07           0        5.88       0.178
  WS02004402           JUNCTION      0.00   535.40     0  02:44           0        5.87       0.181
  WS02004403           JUNCTION      0.00   535.32     0  03:04           0        5.86       0.176
  WS02004404           JUNCTION      0.16   534.44     0  03:04     0.00467        5.85       0.149
  WS02004405           JUNCTION      0.04   534.64     0  03:04      0.0011        5.84       0.216
  WS02004406           JUNCTION      0.00   535.17     0  03:04           0        5.83       0.362
  WS02004407           JUNCTION      0.00   534.42     0  03:04           0        5.81       0.023
  WS02004409           JUNCTION      0.00   534.13     0  03:05           0        5.81       0.054
  WS02004410           JUNCTION      0.00   532.92     0  02:46           0         5.8       0.084
  WS02004411           JUNCTION      0.00   532.23     0  02:47           0         5.8       0.105
  WS02004412           JUNCTION      0.00   531.71     0  02:47           0        5.79       0.138
  WS02004413           JUNCTION      0.00   531.71     0  02:47           0        5.79       0.242
  WS02006109           JUNCTION      1.23   569.94     0  02:26      0.0354        5.93       0.150
  WS02006110           JUNCTION      0.00   572.14     0  02:26           0        5.92       0.118
  WS02006111           JUNCTION      0.00   560.38     0  02:58           0        5.91       0.008
  WS02006112           JUNCTION      0.00   543.31     0  05:15           0        5.91       0.308
  WS02006113           JUNCTION      0.00   572.67     0  02:26           0        5.91       0.039
  WS02006115           JUNCTION      0.00   555.89     0  03:11           0        5.89       0.115
  WS02006116           JUNCTION      0.00   539.06     0  03:12           0        5.88       0.104
  WS02006228           JUNCTION      0.00   566.26     0  02:26           0        5.89       0.057
  WS02006229           JUNCTION      0.00   565.09     0  02:26           0         5.9       0.077
  WS02006230           JUNCTION     10.28   587.18     0  02:25       0.296         5.9       0.068
  WS02006231           JUNCTION      0.00   574.23     0  02:25           0        5.61       0.012
  WS02006232           JUNCTION      0.00   573.51     0  02:25           0        5.61       0.126
  WS02006234           JUNCTION      0.00   568.82     0  02:25           0        5.61      -0.125
  WS02006235           JUNCTION      0.00   563.12     0  03:05           0        5.65       0.131
  WS02006238           JUNCTION      0.00   425.72     0  03:11           0        4.98      -0.194
  WS02006239           JUNCTION      0.00   423.81     0  03:12           0        4.96      -0.172
  WS02006240           JUNCTION      0.00   420.88     0  03:07           0        4.93      -0.049
  WS02006242           JUNCTION      0.00   421.24     0  03:07           0        4.92       0.016
  WS02006243           JUNCTION      0.00   420.87     0  03:21           0        4.91      -0.184
  WS02006245           JUNCTION      0.00   419.98     0  03:21           0        4.92       0.302
  WS02006247           JUNCTION      0.00   420.62     0  03:21           0        4.92       0.006
  WS02006248           JUNCTION      0.00   420.42     0  02:30           0        4.92       0.012
  WS02006249           JUNCTION      0.00   465.99     0  01:35           0        5.08       0.376
  WS02006251           JUNCTION      0.08   404.75     0  02:15     0.00222        5.08       0.044
  WS02006252           JUNCTION      0.00   409.74     0  05:45           0        5.07      -0.265
  WS02006256           JUNCTION      0.00   300.00     0  00:00           0       0.978      -0.912
  WSF200               JUNCTION      0.00   531.46     0  02:48           0        5.77       0.010
  YS02001580           JUNCTION      0.00   100.72     0  02:05           0     0.00416      -0.175
  YS02001583           JUNCTION      0.00   151.99     0  02:04           0      0.0152      -4.451
  YS02001586           JUNCTION    660.88   660.98     0  02:15        1.47        1.48       0.081
  YS02001590           JUNCTION      0.00   318.73     0  02:22           0        1.21      -0.030
  YS02001593           JUNCTION      0.00   318.74     0  02:22           0        1.21       0.007
  YS02001596           JUNCTION      0.00   318.07     0  02:22           0        1.21      -0.003
  YS02001600           JUNCTION      0.00   318.45     0  02:22           0        1.21       0.010
  YS02001601           JUNCTION   1201.55  1519.07     0  02:14        2.05        3.26       0.026
  YS02001602           JUNCTION      0.00   509.73     0  02:04           0        2.12       0.018
  YS02001605           JUNCTION      0.00   510.15     0  02:04           0        2.02       0.022
  YS02001607           JUNCTION      0.00   510.20     0  02:04           0        2.02       0.097
  YS02001610           JUNCTION      0.00   620.48     0  02:15           0        2.15       0.103
  YS02001613           JUNCTION      0.00   509.29     0  02:04           0        1.77       0.099
  YS02001616           JUNCTION      0.00   507.58     0  02:04           0        1.77       0.024
  YS02001619           JUNCTION   1178.22  1178.22     0  02:15        2.34        3.98      -0.008
  YS02001622           JUNCTION      0.00   925.25     0  02:07           0        3.85       0.000
  YS02001625           JUNCTION      0.00  1246.86     0  02:15           0        3.99       0.227
  YS02001629           JUNCTION      0.00   924.48     0  02:07           0        3.23       0.027
  YS02001633           JUNCTION    903.97  1367.45     0  02:07        1.49        4.55       0.077
  YS02001641           JUNCTION      0.00  1363.03     0  02:07           0        4.39       0.063
  YS02001644           JUNCTION    809.42  1766.99     0  02:07        1.29        5.68       0.058
  YS02001647           JUNCTION      0.00  1768.81     0  02:08           0         5.4       0.006
  YS02001649           JUNCTION      0.00  1992.68     0  02:08           0        6.58       0.005
  YS02001652           JUNCTION      0.00   801.11     0  02:14           0        1.18      -0.089
  YS02001655           JUNCTION      0.15   801.46     0  02:14     0.00443        1.17      -0.087
  YS02001658           JUNCTION      0.00   801.20     0  02:14           0        1.17      -0.028
  YS02001661           JUNCTION      0.00   801.68     0  02:13           0        1.17       0.020
  YS02001664           JUNCTION    790.65   790.65     0  02:13        1.17        1.17      -0.007
  YS02001745           JUNCTION    509.23   509.23     0  02:13       0.714       0.714       0.207
  YS02001748           JUNCTION      0.04   578.07     0  02:10      0.0013       0.714      -0.303
  YS02001751           JUNCTION      0.01   525.34     0  02:13    0.000317       0.722       0.066
  YS02001754           JUNCTION      0.26   526.06     0  02:13     0.00749       0.734      -0.161
  YS02001757           JUNCTION      0.00  3292.71     0  02:11           0         9.7       0.033
  YS02001759           JUNCTION    707.42  1328.05     0  02:13       0.984        2.39      -0.008
  YS02001762           JUNCTION      0.00   721.46     0  02:11           0        1.41       0.003
  YS02001765           JUNCTION      0.00   721.64     0  02:10           0        1.41       0.022
  YS02001767           JUNCTION      0.54   723.57     0  02:10      0.0154        1.41       0.011
  YS02001770           JUNCTION    990.07   990.07     0  02:14        1.51        1.55       0.019
  YS02001774           JUNCTION      0.00   395.39     0  02:13           0       0.176       0.634
  YS02001779           JUNCTION      0.01   395.70     0  02:13    0.000144       0.132      -0.596
  YS02001783           JUNCTION      0.00  1164.26     0  02:12           0        3.71       0.006
  YS02001784           JUNCTION      1.06  1165.52     0  02:12      0.0305        3.74       0.015
  YS02001786           JUNCTION      0.06  1165.71     0  02:11     0.00162        3.74       0.017
  YS02001788           JUNCTION      0.07  1165.81     0  02:11     0.00204        3.74       0.008
  YS02001790           JUNCTION      0.15  1174.50     0  02:13     0.00446        3.75       0.019
  YS02001791           JUNCTION      0.00  1289.84     0  02:15           0        3.75      -0.023
  YS02001793           JUNCTION      0.00  1245.94     0  02:15           0        3.75       0.007
  YS02001882           JUNCTION      0.00    36.42     0  02:06           0      0.0126       5.968
  YS02001884           JUNCTION      0.00    68.65     0  02:06           0      0.0487       5.823
  YS02001887           JUNCTION    770.35   770.49     0  02:13        1.03        1.07       0.435
  YS02001890           JUNCTION      0.00   770.22     0  02:13           0        1.03       0.511
  YS02001895           JUNCTION      0.00   517.23     0  02:15           0       0.955       0.174
  YS02001898           JUNCTION      0.00   516.48     0  02:15           0       0.953       0.054
  YS02001901           JUNCTION      0.00   517.67     0  02:15           0       0.956       0.357
  YS02001904           JUNCTION      0.00   517.30     0  02:15           0       0.959       0.297
  YS02001907           JUNCTION      0.00  1831.42     0  02:13           0        3.22       0.565
  YS02001910           JUNCTION      0.00  1317.24     0  02:13           0        2.27       0.317
  YS02001915           JUNCTION    874.96  1316.72     0  02:13        1.43         2.3       0.073
  YS02001918           JUNCTION      0.00   459.40     0  02:13           0       0.899       0.027
  YS02001920           JUNCTION      2.87   458.61     0  02:13      0.0827       0.884       0.105
  YS02001923           JUNCTION      0.04   451.22     0  02:13     0.00109       0.786      -0.037
  YS02001926           JUNCTION      0.05   503.38     0  02:09      0.0015       0.765      -0.085
  YS02001929           JUNCTION    421.38   421.38     0  02:14       0.753       0.754      -0.036
  YS02006553           JUNCTION      0.00   799.08     0  02:27           0        2.25       0.533
  YS02006556           JUNCTION      0.00   798.97     0  02:27           0        2.25       0.363
  YS02006558           JUNCTION   1013.80  1164.75     0  02:12        1.51        3.74       0.101
  YS02006561           JUNCTION      0.00  1164.65     0  02:12           0        3.71      -0.002
  YS02163301           JUNCTION      0.00   924.11     0  02:07           0        3.22       0.047
  YS02163601           JUNCTION      0.11  1366.74     0  02:07     0.00317        4.39       0.112
  YS02164001           JUNCTION      0.00  1365.67     0  02:07           0        4.39       0.053
  CC-1                 OUTFALL       0.00   683.00     0  00:00           0        2.94       0.000
  CC-2                 OUTFALL       0.00   683.00     0  00:00           0        2.55       0.000
  JK-1                 OUTFALL       0.00  1000.00     0  00:00           0         1.9       0.000
  JK-2                 OUTFALL       0.00  1000.00     0  00:00           0       0.882       0.000
  WSC                  OUTFALL       0.00   548.83     0  02:50           0        6.28       0.000
  CC-storage           STORAGE       0.00  3293.84     0  02:11           0        11.9      -0.248
  JK-storage           STORAGE       0.00  1273.39     0  02:10           0         3.9      -0.040
  
  
  **********************
  Node Surcharge Summary
  **********************
  
  Surcharging occurs when water rises above the top of the highest conduit.
  ---------------------------------------------------------------------
                                               Max. Height   Min. Depth
                                   Hours       Above Crown    Below Rim
  Node                 Type      Surcharged         Meters       Meters
  ---------------------------------------------------------------------
  WS02006109           JUNCTION        2.30          0.350        1.470
  WS02006110           JUNCTION        0.46          0.268        1.582
  WS02006112           JUNCTION        0.45          0.072        1.608
  WS02006228           JUNCTION        2.27          0.439        1.761
  WS02006229           JUNCTION        2.35          0.566        1.884
  WS02006230           JUNCTION        0.46          0.422        1.148
  WS02006231           JUNCTION        0.58          0.568        0.962
  WS02006232           JUNCTION        2.56          0.774        0.706
  WS02006234           JUNCTION        0.93          0.721        0.519
  WS02006235           JUNCTION        2.32          0.994        0.296
  WS02006238           JUNCTION        2.43          1.047        0.383
  WS02006239           JUNCTION        2.27          0.988        0.302
  WS02006240           JUNCTION        2.30          0.913        0.477
  WS02006242           JUNCTION        2.52          0.820        0.000
  WS02006243           JUNCTION        2.34          0.706        0.064
  WS02006245           JUNCTION        2.34          0.620        0.230
  WS02006247           JUNCTION        2.39          0.562        0.198
  WS02006248           JUNCTION        2.32          0.380        0.000
  WS02006249           JUNCTION        2.37          0.390        0.000
  WS02006251           JUNCTION        0.63          0.422        0.758
  WS02006252           JUNCTION        3.07          1.100        0.000
  WS02006256           JUNCTION        7.18          2.050        0.000
  YS02001580           JUNCTION        0.54          0.450        0.000
  YS02001583           JUNCTION        0.54          0.397        0.103
  YS02001586           JUNCTION        0.66          0.510        0.000
  YS02001590           JUNCTION        0.73          0.745        0.005
  YS02001593           JUNCTION        0.73          0.691        0.149
  YS02001596           JUNCTION        0.84          0.939        0.131
  YS02001600           JUNCTION        0.99          1.190        0.000
  YS02001601           JUNCTION        1.32          1.440        0.000
  YS02001602           JUNCTION        1.22          1.270        0.000
  YS02001605           JUNCTION        1.17          1.180        0.000
  YS02001607           JUNCTION        0.71          0.680        0.000
  YS02001610           JUNCTION        0.73          0.680        0.000
  YS02001613           JUNCTION        0.70          0.680        0.020
  YS02001616           JUNCTION        0.66          0.610        0.000
  YS02001619           JUNCTION        0.65          0.610        0.000
  YS02001622           JUNCTION        0.65          0.588        0.032
  YS02001625           JUNCTION        0.82          0.780        0.000
  YS02001629           JUNCTION        0.60          0.470        0.000
  YS02001633           JUNCTION        0.84          0.986        0.074
  YS02001641           JUNCTION        0.78          1.001        0.099
  YS02001644           JUNCTION        0.76          0.920        0.000
  YS02001647           JUNCTION        0.55          0.757        0.143
  YS02001649           JUNCTION        0.66          0.996        0.054
  YS02001652           JUNCTION        0.48          0.858        0.272
  YS02001655           JUNCTION        0.34          0.752        0.448
  YS02001658           JUNCTION        0.18          0.673        0.627
  YS02001661           JUNCTION        0.01          0.356        1.034
  YS02001748           JUNCTION        0.14          0.626        0.564
  YS02001751           JUNCTION        0.25          0.687        0.513
  YS02001754           JUNCTION        0.39          0.683        0.467
  YS02001757           JUNCTION        0.72          0.986        0.224
  YS02001759           JUNCTION        0.63          0.972        0.238
  YS02001762           JUNCTION        0.60          0.950        0.200
  YS02001765           JUNCTION        0.55          0.924        0.176
  YS02001767           JUNCTION        0.53          0.903        0.127
  YS02001770           JUNCTION        0.49          0.895        0.025
  YS02001774           JUNCTION        0.58          0.978        0.072
  YS02001779           JUNCTION        0.39          0.680        0.000
  YS02001783           JUNCTION        0.48          0.489        1.111
  YS02001784           JUNCTION        0.46          0.355        1.135
  YS02001786           JUNCTION        0.36          0.097        1.333
  YS02001882           JUNCTION        0.43          0.830        0.000
  YS02001884           JUNCTION        0.44          0.870        0.000
  YS02001887           JUNCTION        0.47          0.883        0.067
  YS02001890           JUNCTION        0.48          0.760        0.000
  YS02001895           JUNCTION        0.42          0.750        0.000
  YS02001898           JUNCTION        0.41          0.740        0.000
  YS02001901           JUNCTION        0.46          0.870        0.000
  YS02001904           JUNCTION        0.45          0.765        0.085
  YS02001907           JUNCTION        0.69          0.950        0.000
  YS02001910           JUNCTION        0.51          0.955        0.145
  YS02001915           JUNCTION        0.42          0.907        0.093
  YS02001918           JUNCTION        0.34          0.810        0.000
  YS02001920           JUNCTION        0.36          1.140        0.000
  YS02001923           JUNCTION        0.05          0.820        0.000
  YS02001926           JUNCTION        0.09          0.900        0.000
  YS02001929           JUNCTION        0.01          0.780        0.000
  YS02006553           JUNCTION        0.71          0.980        0.210
  YS02006556           JUNCTION        0.60          0.918        0.432
  YS02006558           JUNCTION        0.58          0.913        0.487
  YS02006561           JUNCTION        0.31          0.165        0.985
  YS02163301           JUNCTION        0.83          0.912        0.118
  YS02163601           JUNCTION        0.88          1.027        0.053
  YS02164001           JUNCTION        0.79          0.946        0.154
  
  
  *********************
  Node Flooding Summary
  *********************
  
  Flooding refers to all water that overflows a node, whether it ponds or not.
  --------------------------------------------------------------------------
                                                             Total   Maximum
                                 Maximum   Time of Max       Flood    Ponded
                        Hours       Rate    Occurrence      Volume     Depth
  Node                 Flooded       LPS   days hr:min    10^6 ltr    Meters
  --------------------------------------------------------------------------
  WS02006242              0.01      9.73      0  02:35       0.000     0.000
  WS02006248              0.01     10.97      0  02:35       0.000     0.000
  WS02006249              0.60     88.39      0  02:26       0.142     0.000
  WS02006252              0.01    296.13      0  05:45       0.001     0.000
  WS02006256              0.90    299.73      0  05:12       0.303     0.000
  YS02001580              0.01     89.85      0  02:05       0.000     0.000
  YS02001586              0.41    343.41      0  02:15       0.253     0.000
  YS02001600              0.01      0.72      0  02:05       0.000     0.000
  YS02001601              0.59   1121.03      0  02:14       1.135     0.000
  YS02001602              0.49     62.00      0  02:25       0.097     0.000
  YS02001605              0.01      2.11      0  02:05       0.000     0.000
  YS02001607              0.01      0.49      0  02:22       0.000     0.000
  YS02001610              0.42    620.29      0  02:15       0.509     0.000
  YS02001616              0.01      9.74      0  02:22       0.000     0.000
  YS02001619              0.01      9.18      0  02:22       0.000     0.000
  YS02001625              0.40   1246.73      0  02:15       0.911     0.000
  YS02001629              0.09    163.30      0  02:12       0.030     0.000
  YS02001644              0.16    769.64      0  02:13       0.267     0.000
  YS02001779              0.14    395.70      0  02:13       0.115     0.000
  YS02001882              0.01      0.87      0  02:22       0.000     0.000
  YS02001884              0.01      0.95      0  02:22       0.000     0.000
  YS02001890              0.15    256.23      0  02:13       0.066     0.000
  YS02001895              0.01      0.74      0  02:22       0.000     0.000
  YS02001898              0.01      1.41      0  02:22       0.000     0.000
  YS02001901              0.01      0.13      0  02:22       0.000     0.000
  YS02001907              0.29   1686.05      0  02:13       0.965     0.000
  YS02001918              0.01    127.91      0  02:09       0.001     0.000
  YS02001920              0.01     45.68      0  02:09       0.000     0.000
  YS02001923              0.01     87.07      0  02:09       0.000     0.000
  YS02001926              0.01     76.84      0  02:09       0.000     0.000
  YS02001929              0.01    200.47      0  02:09       0.001     0.000
  
  
  **********************
  Storage Volume Summary
  **********************
  
  ------------------------------------------------------------------------------------------------
                         Average    Avg   Evap  Exfil     Maximum    Max    Time of Max    Maximum
                          Volume   Pcnt   Pcnt   Pcnt      Volume   Pcnt     Occurrence    Outflow
  Storage Unit           1000 m³   Full   Loss   Loss     1000 m³   Full    days hr:min        LPS
  ------------------------------------------------------------------------------------------------
  CC-storage               2.291   35.7    0.0    0.0       4.573   71.3       0  02:36    1783.53
  JK-storage               0.136   46.8    0.0    0.0       0.213   73.1       0  02:25    2300.00
  
  
  ***********************
  Outfall Loading Summary
  ***********************
  
  -----------------------------------------------------------
                         Flow       Avg       Max       Total
                         Freq      Flow      Flow      Volume
  Outfall Node           Pcnt       LPS       LPS    10^6 ltr
  -----------------------------------------------------------
  CC-1                  16.48    683.00    683.00       2.940
  CC-2                  14.40    683.00    683.00       2.546
  JK-1                   8.16   1000.00   1000.00       1.898
  JK-2                   4.28   1000.00   1000.00       0.882
  WSC                   99.96    280.75    548.83       6.281
  -----------------------------------------------------------
  System                28.66   3646.75   3914.83      14.547
  
  
  ********************
  Link Flow Summary
  ********************
  
  -----------------------------------------------------------------------------
                                 Maximum  Time of Max   Maximum    Max/    Max/
                                  |Flow|   Occurrence   |Veloc|    Full    Full
  Link                 Type          LPS  days hr:min     m/sec    Flow   Depth
  -----------------------------------------------------------------------------
  1                    CONDUIT    548.83     0  02:50      2.82    0.19    0.30
  WS02003060WS02003069 CONDUIT    547.92     0  02:49      1.64    0.21    0.34
  WS02003066WSF200     CONDUIT    531.46     0  02:48      2.84    0.09    0.22
  WS02003067WS02003066 CONDUIT    531.37     0  02:48      1.20    0.17    0.41
  WS02003069WS02003072 CONDUIT    547.75     0  02:49      1.37    0.26    0.38
  WS02003072WS02003073 CONDUIT    547.47     0  02:49      1.43    1.18    0.37
  WS02004401WS02004402 CONDUIT    535.40     0  02:44      0.98    0.64    0.86
  WS02004402WS02004403 CONDUIT    535.32     0  03:04      0.97    0.77    0.88
  WS02004403WS02004404 CONDUIT    534.28     0  03:04      0.92    0.39    0.93
  WS02004404WS02004405 CONDUIT    534.60     0  03:04      1.08    5.24    0.96
  WS02004405WS02004406 CONDUIT    535.17     0  03:04      0.99    1.06    0.95
  WS02004406WS02004407 CONDUIT    534.42     0  03:04      1.04    0.24    0.62
  WS02004407WS02004409 CONDUIT    534.13     0  03:05      1.46    0.19    0.48
  WS02004409WS02004410 CONDUIT    532.92     0  02:46      0.96    0.69    0.67
  WS02004410WS02004411 CONDUIT    532.23     0  02:47      0.93    0.73    0.68
  WS02004411WS02004412 CONDUIT    531.71     0  02:47      0.92    0.76    0.69
  WS02004412WS02004413 CONDUIT    531.71     0  02:47      0.81    0.36    0.77
  WS02004413WS02003067 CONDUIT    531.27     0  02:48      1.10    0.23    0.59
  WS02006109WS02006110 CONDUIT    572.14     0  02:26      1.14    1.10    1.00
  WS02006110WS02006113 CONDUIT    572.67     0  02:26      1.39    0.52    0.79
  WS02006111WS02006112 CONDUIT    543.31     0  05:15      1.81    0.26    0.67
  WS02006112WS02006115 CONDUIT    555.89     0  03:11      0.78    0.33    0.87
  WS02006113WS02006111 CONDUIT    560.38     0  02:58      2.46    0.67    0.46
  WS02006115WS02006116 CONDUIT    539.06     0  03:12      0.97    0.69    0.76
  WS02006116WS02004401 CONDUIT    537.14     0  03:07      0.98    0.74    0.84
  WS02006228WS02006109 CONDUIT    568.71     0  02:26      1.13    2.48    1.00
  WS02006229WS02006228 CONDUIT    566.26     0  02:26      1.14    1.88    1.00
  WS02006230WS02006229 CONDUIT    565.09     0  02:26      1.47   12.58    1.00
  WS02006231WS02006230 CONDUIT    576.90     0  02:25      1.57    8.75    1.00
  WS02006232WS02006231 CONDUIT    574.23     0  02:25      1.51    1.20    1.00
  WS02006234WS02006232 CONDUIT    573.51     0  02:25      1.49    1.16    1.00
  WS02006235WS02006234 CONDUIT    568.82     0  02:25      1.48    6.00    1.00
  WS02006238WS02006235 CONDUIT    426.67     0  03:07      1.45    0.95    1.00
  WS02006239WS02006238 CONDUIT    425.72     0  03:11      1.11    1.36    1.00
  WS02006240WS02006239 CONDUIT    423.81     0  03:12      1.24    1.33    1.00
  WS02006242WS02006240 CONDUIT    420.88     0  03:07      1.13    1.67    1.00
  WS02006243WS02006242 CONDUIT    421.24     0  03:07      1.40    0.90    1.00
  WS02006245WS02006243 CONDUIT    420.87     0  03:21      1.45    1.24    1.00
  WS02006247WS02006245 CONDUIT    419.98     0  03:21      1.43    3.33    1.00
  WS02006248WS02006247 CONDUIT    420.62     0  03:21      1.44    0.92    1.00
  WS02006249WS02006248 CONDUIT    420.42     0  02:30      1.41    2.30    1.00
  WS02006251WS02006249 CONDUIT    465.99     0  01:35      2.01    1.34    1.00
  WS02006252WS02006251 CONDUIT    404.67     0  02:15     24.61    1.49    1.00
  WS02006256WS02006235 CONDUIT    288.91     0  00:00      4.23    3.06    1.00
  WSF200WS02003060     CONDUIT    531.81     0  02:48      2.06    0.12    0.28
  YS02001580YS02001583 CONDUIT    100.72     0  02:05      0.60    0.39    1.00
  YS02001583YS02001586 CONDUIT    151.99     0  02:04      0.63    0.23    1.00
  YS02001586YS02001590 CONDUIT    318.73     0  02:22      1.25    0.56    1.00
  YS02001590YS02001593 CONDUIT    318.74     0  02:22      1.13    2.00    1.00
  YS02001593YS02001596 CONDUIT    318.07     0  02:22      1.74    0.50    1.00
  YS02001596YS02001600 CONDUIT    318.45     0  02:22      1.24    0.62    1.00
  YS02001600YS02001601 CONDUIT    318.56     0  02:22      1.13    0.55    1.00
  YS02001601YS02001602 CONDUIT    509.73     0  02:04      1.80    1.84    1.00
  YS02001602YS02001605 CONDUIT    510.15     0  02:04      1.80   10.80    1.00
  YS02001605YS02001607 CONDUIT    510.20     0  02:04      1.80    2.80    1.00
  YS02001607YS02001610 CONDUIT    509.46     0  02:04      0.65    0.48    1.00
  YS02001610YS02001613 CONDUIT    509.29     0  02:04      0.65    0.59    1.00
  YS02001613YS02001616 CONDUIT    507.58     0  02:04      0.65    0.43    1.00
  YS02001616YS02001619 CONDUIT    501.34     0  02:04      0.66    0.87    1.00
  YS02001619YS02001622 CONDUIT    925.25     0  02:07      1.18    1.36    1.00
  YS02001622YS02001625 CONDUIT    924.86     0  02:13      1.18    0.49    1.00
  YS02001625YS02001629 CONDUIT    924.48     0  02:07      1.18    0.44    1.00
  YS02001629YS02163301 CONDUIT    924.11     0  02:07      1.18    1.14    1.00
  YS02001633YS02163601 CONDUIT   1366.63     0  02:07      1.74    1.43    1.00
  YS02001641YS02001644 CONDUIT   1361.38     0  02:07      1.73    4.40    1.00
  YS02001644YS02001647 CONDUIT   1768.81     0  02:08      2.27    1.04    1.00
  YS02001647YS02001649 CONDUIT   1778.99     0  02:08      2.33    0.94    1.00
  YS02001649YS02001757 CONDUIT   1967.78     0  02:08      2.51    1.19    1.00
  YS02001652YS02001649 CONDUIT    801.36     0  02:14      1.02    0.40    1.00
  YS02001655YS02001652 CONDUIT    801.11     0  02:14      1.29    0.39    1.00
  YS02001658YS02001655 CONDUIT    801.31     0  02:14      1.88    0.34    1.00
  YS02001661YS02001658 CONDUIT    801.20     0  02:14      2.30    0.31    1.00
  YS02001664YS02001661 CONDUIT    801.68     0  02:13      2.29    0.25    0.78
  YS02001745YS02001748 CONDUIT    578.02     0  02:10      2.16    0.22    0.89
  YS02001748YS02001751 CONDUIT    525.33     0  02:13      1.68    0.27    1.00
  YS02001751YS02001754 CONDUIT    525.80     0  02:13      1.42    0.25    1.00
  YS02001754YS02001757 CONDUIT    525.93     0  02:13      0.67    0.21    1.00
  YS02001757CaochengTiaoxuchi CONDUIT   3293.84     0  02:11      4.19    1.43    1.00
  YS02001759YS02001757 CONDUIT   1327.19     0  02:13      1.69    0.94    1.00
  YS02001762YS02001759 CONDUIT    723.23     0  02:11      0.92    0.83    1.00
  YS02001765YS02001762 CONDUIT    721.46     0  02:11      0.92    0.68    1.00
  YS02001767YS02001765 CONDUIT    721.64     0  02:10      0.92    0.91    1.00
  YS02001770YS02001767 CONDUIT    723.04     0  02:10      0.92    2.86    1.00
  YS02001774YS02001770 CONDUIT    395.39     0  02:13      0.50    0.25    1.00
  YS02001779YS02001774 CONDUIT    395.69     0  02:13      0.50    0.20    1.00
  YS02001783YS02001784 CONDUIT   1164.46     0  02:12      2.32    1.61    1.00
  YS02001784YS02001785 CONDUIT   1165.66     0  02:11      2.32    2.71    1.00
  YS02001786YS02001788 CONDUIT   1165.74     0  02:11      2.48    2.25    0.89
  YS02001788YS02001790 CONDUIT   1174.34     0  02:13      2.71    0.87    0.84
  YS02001790YS02001791 CONDUIT   1289.84     0  02:15      3.44    1.40    0.71
  YS02001791YS02001793 CONDUIT   1245.94     0  02:15      6.74    0.53    0.45
  YS02001793JiankangQianchi CONDUIT   1273.39     0  02:10      2.53    0.10    0.65
  YS02001882YS02001884 CONDUIT     36.42     0  02:06      0.11    0.04    1.00
  YS02001884YS02001887 CONDUIT     68.65     0  02:06      0.09    0.09    1.00
  YS02001887YS02001890 CONDUIT    770.22     0  02:13      0.98    1.32    1.00
  YS02001890YS02001895 CONDUIT    517.23     0  02:15      0.66    0.24    1.00
  YS02001895YS02001898 CONDUIT    516.48     0  02:15      0.66    0.90    1.00
  YS02001898YS02001901 CONDUIT    517.67     0  02:15      0.66    0.33    1.00
  YS02001901YS02001904 CONDUIT    517.30     0  02:15      0.66    0.80    1.00
  YS02001904YS02001907 CONDUIT    517.87     0  02:15      0.66    0.18    1.00
  YS02001907YS02006553 CONDUIT    799.08     0  02:27      0.89    0.94    1.00
  YS02001910YS02001907 CONDUIT   1317.11     0  02:13      1.68    0.74    1.00
  YS02001915YS02001910 CONDUIT   1317.24     0  02:13      1.68    0.65    1.00
  YS02001918YS02001915 CONDUIT    459.31     0  02:13      0.58    0.25    1.00
  YS02001920YS02001918 CONDUIT    459.40     0  02:13      0.67    0.44    1.00
  YS02001923YS02001920 CONDUIT    455.74     0  02:13      0.69    0.20    1.00
  YS02001926YS02001923 CONDUIT    451.18     0  02:13      0.96    0.64    1.00
  YS02001929YS02001926 CONDUIT    447.91     0  02:13      1.12    0.21    1.00
  YS02006553YS02006556 CONDUIT    798.97     0  02:27      1.02    0.68    1.00
  YS02006556YS02006558 CONDUIT    800.94     0  02:28      1.02    0.63    1.00
  YS02006558YS02006561 CONDUIT   1164.65     0  02:12      4.12    2.57    1.00
  YS02006561YS02001783 CONDUIT   1164.26     0  02:12      2.32    0.60    1.00
  YS02163301YS02001633 CONDUIT    924.50     0  02:07      1.18    0.87    1.00
  YS02163601YS02164001 CONDUIT   1365.67     0  02:07      1.74    1.21    1.00
  YS02164001YS02001641 CONDUIT   1363.03     0  02:07      1.74    1.86    1.00
  CC-R1                PUMP       683.00     0  00:00              1.00
  CC-R2                PUMP       683.00     0  00:00              1.00
  CC-S1                PUMP       200.00     0  00:00              1.00
  CC-S2                PUMP       200.00     0  00:00              1.00
  JK-R1                PUMP      1000.00     0  00:00              1.00
  JK-R2                PUMP      1000.00     0  00:00              1.00
  JK-S                 PUMP       300.00     0  00:00              1.00
  
  
  ***************************
  Flow Classification Summary
  ***************************
  
  -------------------------------------------------------------------------------------
                      Adjusted    ---------- Fraction of Time in Flow Class ---------- 
                       /Actual         Up    Down  Sub   Sup   Up    Down  Norm  Inlet 
  Conduit               Length    Dry  Dry   Dry   Crit  Crit  Crit  Crit  Ltd   Ctrl  
  -------------------------------------------------------------------------------------
  1                       1.00   0.00  0.00  0.00  0.00  1.00  0.00  0.00  0.39  0.00
  WS02003060WS02003069    1.00   0.00  0.00  0.00  0.98  0.02  0.00  0.00  0.58  0.00
  WS02003066WSF200        1.00   0.13  0.00  0.00  0.00  0.87  0.00  0.00  0.79  0.00
  WS02003067WS02003066    1.00   0.10  0.02  0.00  0.88  0.00  0.00  0.00  0.00  0.00
  WS02003069WS02003072    1.00   0.00  0.00  0.00  0.99  0.01  0.00  0.00  0.65  0.00
  WS02003072WS02003073    1.00   0.00  0.00  0.00  0.00  0.00  0.00  1.00  0.00  0.00
  WS02004401WS02004402    1.00   0.02  0.00  0.00  0.98  0.00  0.00  0.00  0.00  0.00
  WS02004402WS02004403    1.00   0.02  0.00  0.00  0.97  0.00  0.00  0.00  0.00  0.00
  WS02004403WS02004404    1.00   0.00  0.03  0.00  0.97  0.00  0.00  0.00  0.00  0.00
  WS02004404WS02004405    1.00   0.00  0.00  0.00  1.00  0.00  0.00  0.00  0.01  0.00
  WS02004405WS02004406    1.00   0.00  0.00  0.00  1.00  0.00  0.00  0.00  0.00  0.00
  WS02004406WS02004407    1.00   0.00  0.05  0.00  0.95  0.00  0.00  0.00  0.00  0.00
  WS02004407WS02004409    1.00   0.05  0.00  0.00  0.94  0.01  0.00  0.00  0.94  0.00
  WS02004409WS02004410    1.00   0.05  0.00  0.00  0.95  0.00  0.00  0.00  0.03  0.00
  WS02004410WS02004411    1.00   0.05  0.00  0.00  0.95  0.00  0.00  0.00  0.01  0.00
  WS02004411WS02004412    1.00   0.05  0.00  0.00  0.95  0.00  0.00  0.00  0.00  0.00
  WS02004412WS02004413    1.00   0.05  0.00  0.00  0.94  0.00  0.00  0.00  0.01  0.00
  WS02004413WS02003067    1.00   0.06  0.04  0.00  0.00  0.00  0.90  0.00  0.00  0.00
  WS02006109WS02006110    1.00   0.00  0.01  0.00  0.98  0.00  0.01  0.00  0.00  0.00
  WS02006110WS02006113    1.00   0.01  0.01  0.00  0.98  0.00  0.00  0.00  0.00  0.00
  WS02006111WS02006112    1.00   0.02  0.00  0.00  0.98  0.00  0.00  0.00  0.98  0.00
  WS02006112WS02006115    1.00   0.02  0.00  0.00  0.97  0.00  0.00  0.00  0.00  0.00
  WS02006113WS02006111    1.00   0.02  0.00  0.00  0.00  0.98  0.00  0.00  0.16  0.00
  WS02006115WS02006116    1.00   0.02  0.00  0.00  0.97  0.00  0.00  0.01  0.00  0.00
  WS02006116WS02004401    1.00   0.02  0.00  0.00  0.98  0.00  0.00  0.00  0.00  0.00
  WS02006228WS02006109    1.00   0.00  0.00  0.00  1.00  0.00  0.00  0.00  0.00  0.00
  WS02006229WS02006228    1.00   0.00  0.00  0.00  0.99  0.00  0.00  0.01  0.00  0.00
  WS02006230WS02006229    1.00   0.00  0.00  0.00  0.99  0.00  0.00  0.01  0.00  0.00
  WS02006231WS02006230    1.00   0.00  0.00  0.00  0.37  0.00  0.63  0.00  0.00  0.00
  WS02006232WS02006231    1.00   0.00  0.00  0.00  0.99  0.00  0.01  0.00  0.00  0.00
  WS02006234WS02006232    1.00   0.00  0.00  0.00  1.00  0.00  0.00  0.00  0.05  0.00
  WS02006235WS02006234    1.00   0.00  0.00  0.00  0.89  0.00  0.11  0.00  0.00  0.00
  WS02006238WS02006235    1.00   0.00  0.00  0.00  1.00  0.00  0.00  0.00  0.00  0.00
  WS02006239WS02006238    1.00   0.00  0.00  0.00  1.00  0.00  0.00  0.00  0.11  0.00
  WS02006240WS02006239    1.00   0.00  0.00  0.00  0.64  0.00  0.00  0.36  0.02  0.00
  WS02006242WS02006240    1.00   0.00  0.00  0.00  0.99  0.00  0.01  0.00  0.00  0.00
  WS02006243WS02006242    1.00   0.00  0.00  0.00  0.99  0.00  0.00  0.01  0.45  0.00
  WS02006245WS02006243    1.00   0.00  0.00  0.00  0.82  0.00  0.00  0.18  0.00  0.00
  WS02006247WS02006245    1.00   0.00  0.00  0.00  0.96  0.00  0.00  0.04  0.00  0.00
  WS02006248WS02006247    1.00   0.00  0.00  0.00  0.98  0.00  0.00  0.02  0.37  0.00
  WS02006249WS02006248    1.00   0.00  0.00  0.00  0.60  0.00  0.40  0.00  0.00  0.00
  WS02006251WS02006249    1.00   0.00  0.00  0.00  0.99  0.01  0.00  0.00  0.44  0.00
  WS02006252WS02006251    1.00   0.00  0.44  0.00  0.08  0.00  0.49  0.00  0.00  0.00
  WS02006256WS02006235    1.00   0.00  0.00  0.00  1.00  0.00  0.00  0.00  0.00  0.00
  WSF200WS02003060        1.00   0.00  0.13  0.00  0.27  0.61  0.00  0.00  0.40  0.00
  YS02001580YS02001583    1.00   0.26  0.56  0.00  0.18  0.00  0.00  0.00  0.65  0.00
  YS02001583YS02001586    1.00   0.42  0.34  0.00  0.24  0.00  0.00  0.00  0.65  0.00
  YS02001586YS02001590    1.00   0.13  0.00  0.00  0.43  0.04  0.00  0.40  0.37  0.00
  YS02001590YS02001593    1.00   0.13  0.01  0.00  0.11  0.00  0.76  0.00  0.00  0.00
  YS02001593YS02001596    1.00   0.14  0.00  0.00  0.12  0.01  0.00  0.73  0.02  0.00
  YS02001596YS02001600    1.00   0.14  0.00  0.00  0.19  0.01  0.00  0.66  0.05  0.00
  YS02001600YS02001601    1.00   0.13  0.01  0.00  0.86  0.00  0.00  0.00  0.61  0.00
  YS02001601YS02001602    1.00   0.13  0.01  0.00  0.86  0.00  0.00  0.00  0.00  0.00
  YS02001602YS02001605    1.00   0.14  0.00  0.00  0.86  0.00  0.00  0.00  0.00  0.00
  YS02001605YS02001607    1.00   0.14  0.00  0.00  0.86  0.00  0.00  0.00  0.00  0.00
  YS02001607YS02001610    1.00   0.13  0.01  0.00  0.86  0.00  0.00  0.00  0.02  0.00
  YS02001610YS02001613    1.00   0.13  0.00  0.00  0.87  0.00  0.00  0.00  0.01  0.00
  YS02001613YS02001616    1.00   0.13  0.00  0.00  0.87  0.00  0.00  0.00  0.01  0.00
  YS02001616YS02001619    1.00   0.13  0.00  0.00  0.87  0.00  0.00  0.00  0.00  0.00
  YS02001619YS02001622    1.00   0.13  0.00  0.00  0.87  0.00  0.00  0.00  0.29  0.00
  YS02001622YS02001625    1.00   0.13  0.00  0.00  0.87  0.00  0.00  0.00  0.05  0.00
  YS02001625YS02001629    1.00   0.13  0.05  0.00  0.15  0.00  0.67  0.00  0.00  0.00
  YS02001629YS02163301    1.00   0.16  0.01  0.00  0.83  0.00  0.00  0.00  0.00  0.00
  YS02001633YS02163601    1.00   0.00  0.01  0.00  0.99  0.00  0.00  0.00  0.15  0.00
  YS02001641YS02001644    1.00   0.00  0.01  0.00  0.99  0.00  0.00  0.00  0.00  0.00
  YS02001644YS02001647    1.00   0.00  0.18  0.00  0.82  0.00  0.00  0.00  0.00  0.00
  YS02001647YS02001649    1.00   0.00  0.18  0.00  0.52  0.30  0.00  0.00  0.56  0.00
  YS02001649YS02001757    1.00   0.00  0.00  0.00  0.82  0.18  0.00  0.00  0.41  0.00
  YS02001652YS02001649    1.00   0.00  0.00  0.00  0.96  0.04  0.00  0.00  0.74  0.00
  YS02001655YS02001652    1.00   0.00  0.00  0.00  0.17  0.02  0.00  0.81  0.06  0.00
  YS02001658YS02001655    1.00   0.00  0.14  0.00  0.65  0.21  0.00  0.00  0.71  0.00
  YS02001661YS02001658    1.00   0.14  0.00  0.00  0.49  0.37  0.00  0.00  0.70  0.00
  YS02001664YS02001661    1.00   0.13  0.00  0.00  0.78  0.10  0.00  0.00  0.86  0.00
  YS02001745YS02001748    1.00   0.00  0.00  0.00  0.08  0.01  0.00  0.91  0.04  0.00
  YS02001748YS02001751    1.00   0.00  0.00  0.00  0.81  0.19  0.00  0.00  0.76  0.00
  YS02001751YS02001754    1.00   0.00  0.00  0.00  0.14  0.00  0.00  0.85  0.02  0.00
  YS02001754YS02001757    1.00   0.00  0.00  0.00  1.00  0.00  0.00  0.00  0.81  0.00
  YS02001757CaochengTiaoxuchi    1.00   0.00  0.00  0.00  0.97  0.03  0.00  0.00  0.67  0.00
  YS02001759YS02001757    1.00   0.00  0.00  0.00  1.00  0.00  0.00  0.00  0.54  0.00
  YS02001762YS02001759    1.00   0.00  0.00  0.00  1.00  0.00  0.00  0.00  0.05  0.00
  YS02001765YS02001762    1.00   0.00  0.00  0.00  1.00  0.00  0.00  0.00  0.67  0.00
  YS02001767YS02001765    1.00   0.00  0.00  0.00  1.00  0.00  0.00  0.00  0.01  0.00
  YS02001770YS02001767    1.00   0.00  0.00  0.00  1.00  0.00  0.00  0.00  0.00  0.00
  YS02001774YS02001770    1.00   0.00  0.13  0.00  0.70  0.00  0.17  0.00  0.03  0.00
  YS02001779YS02001774    1.00   0.00  0.00  0.00  1.00  0.00  0.00  0.00  0.79  0.00
  YS02001783YS02001784    1.00   0.00  0.19  0.00  0.81  0.00  0.00  0.00  0.56  0.00
  YS02001784YS02001785    1.00   0.00  0.00  0.00  1.00  0.00  0.00  0.00  0.17  0.00
  YS02001786YS02001788    1.00   0.00  0.00  0.00  0.79  0.21  0.00  0.00  0.00  0.00
  YS02001788YS02001790    1.00   0.00  0.00  0.00  0.22  0.78  0.00  0.00  0.81  0.00
  YS02001790YS02001791    1.00   0.00  0.00  0.00  0.01  0.99  0.00  0.00  0.16  0.00
  YS02001791YS02001793    1.00   0.00  0.00  0.00  0.00  1.00  0.00  0.00  0.01  0.00
  YS02001793JiankangQianchi    1.00   0.00  0.00  0.00  0.98  0.02  0.00  0.00  0.97  0.00
  YS02001882YS02001884    1.00   0.15  0.01  0.00  0.84  0.00  0.00  0.00  0.00  0.00
  YS02001884YS02001887    1.00   0.06  0.05  0.00  0.89  0.00  0.00  0.00  0.00  0.00
  YS02001887YS02001890    1.00   0.00  0.00  0.00  0.97  0.00  0.03  0.00  0.00  0.00
  YS02001890YS02001895    1.00   0.00  0.17  0.00  0.83  0.00  0.00  0.00  0.00  0.00
  YS02001895YS02001898    1.00   0.17  0.00  0.00  0.81  0.00  0.02  0.00  0.00  0.00
  YS02001898YS02001901    1.00   0.17  0.00  0.00  0.83  0.00  0.00  0.00  0.01  0.00
  YS02001901YS02001904    1.00   0.17  0.00  0.00  0.83  0.00  0.00  0.00  0.00  0.00
  YS02001904YS02001907    1.00   0.00  0.17  0.00  0.83  0.00  0.00  0.00  0.00  0.00
  YS02001907YS02006553    1.00   0.00  0.02  0.00  0.98  0.00  0.00  0.00  0.00  0.00
  YS02001910YS02001907    1.00   0.00  0.00  0.00  0.97  0.00  0.00  0.03  0.12  0.00
  YS02001915YS02001910    1.00   0.00  0.00  0.00  0.97  0.03  0.00  0.00  0.16  0.00
  YS02001918YS02001915    1.00   0.00  0.01  0.00  0.98  0.02  0.00  0.00  0.76  0.00
  YS02001920YS02001918    1.00   0.00  0.01  0.00  0.99  0.00  0.00  0.00  0.00  0.00
  YS02001923YS02001920    1.00   0.00  0.00  0.00  1.00  0.00  0.00  0.00  0.93  0.00
  YS02001926YS02001923    1.00   0.00  0.07  0.00  0.05  0.00  0.87  0.00  0.00  0.00
  YS02001929YS02001926    1.00   0.00  0.13  0.00  0.87  0.00  0.00  0.00  0.83  0.00
  YS02006553YS02006556    1.00   0.01  0.00  0.00  0.99  0.00  0.00  0.00  0.03  0.00
  YS02006556YS02006558    1.00   0.00  0.00  0.00  1.00  0.00  0.00  0.00  0.00  0.00
  YS02006558YS02006561    1.00   0.18  0.00  0.00  0.05  0.77  0.00  0.00  0.19  0.00
  YS02006561YS02001783    1.00   0.18  0.00  0.00  0.08  0.73  0.00  0.00  0.69  0.00
  YS02163301YS02001633    1.00   0.00  0.16  0.00  0.84  0.00  0.00  0.00  0.00  0.00
  YS02163601YS02164001    1.00   0.00  0.08  0.00  0.92  0.00  0.00  0.00  0.00  0.00
  YS02164001YS02001641    1.00   0.01  0.07  0.00  0.92  0.00  0.00  0.00  0.06  0.00
  
  
  *************************
  Conduit Surcharge Summary
  *************************
  
  ----------------------------------------------------------------------------
                                                           Hours        Hours 
                         --------- Hours Full --------   Above Full   Capacity
  Conduit                Both Ends  Upstream  Dnstream   Normal Flow   Limited
  ----------------------------------------------------------------------------
  WS02003072WS02003073        0.01      0.01      0.01      1.02         0.01
  WS02004404WS02004405        0.01      0.01      0.01      3.97         0.01
  WS02004405WS02004406        0.01      0.01      0.01      0.36         0.01
  WS02006109WS02006110        0.45      0.45      2.55      0.56         0.01
  WS02006110WS02006113        0.01      0.01      2.42      0.01         0.01
  WS02006111WS02006112        0.01      0.01      3.32      0.01         0.01
  WS02006112WS02006115        0.01      0.01      0.45      0.01         0.01
  WS02006228WS02006109        2.30      2.56      2.30      3.66         2.30
  WS02006229WS02006228        2.27      2.35      2.27      3.15         2.25
  WS02006230WS02006229        2.76      3.07      2.76      4.53         2.76
  WS02006231WS02006230        0.46      0.46      0.62      4.24         0.01
  WS02006232WS02006231        0.57      0.57      2.56      0.62         0.01
  WS02006234WS02006232        2.16      2.16      2.56      0.62         0.61
  WS02006235WS02006234        0.92      0.93      2.31      4.08         0.01
  WS02006238WS02006235        2.37      2.37      2.58      0.01         0.01
  WS02006239WS02006238        2.40      2.50      2.43      2.87         2.21
  WS02006240WS02006239        2.27      2.32      2.27      2.85         2.10
  WS02006242WS02006240        2.30      2.30      2.67      3.19         0.01
  WS02006243WS02006242        2.36      2.36      2.52      0.01         0.04
  WS02006245WS02006243        2.34      2.36      2.34      2.40         1.84
  WS02006247WS02006245        2.34      2.42      2.34      3.91         2.33
  WS02006248WS02006247        2.34      2.34      2.39      0.01         0.04
  WS02006249WS02006248        2.32      2.32      2.37      3.90         0.01
  WS02006251WS02006249        2.37      2.40      2.37      2.95         2.30
  WS02006252WS02006251        3.04      3.04      3.06      3.04         0.01
  WS02006256WS02006235        4.13      4.16      7.14      0.91         0.01
  YS02001580YS02001583        0.53      0.53      0.58      0.01         0.01
  YS02001583YS02001586        0.54      0.54      0.66      0.01         0.01
  YS02001586YS02001590        0.66      0.66      0.73      0.01         0.01
  YS02001590YS02001593        0.73      0.73      0.75      0.76         0.01
  YS02001593YS02001596        0.74      0.74      0.84      0.01         0.01
  YS02001596YS02001600        0.89      0.89      0.99      0.01         0.01
  YS02001600YS02001601        1.05      1.05      1.32      0.01         0.01
  YS02001601YS02001602        1.22      1.22      1.36      0.99         0.01
  YS02001602YS02001605        1.17      1.17      1.22      2.21         0.01
  YS02001605YS02001607        1.13      1.17      1.13      1.29         1.13
  YS02001607YS02001610        0.71      0.71      0.73      0.01         0.01
  YS02001610YS02001613        0.70      0.70      0.73      0.01         0.01
  YS02001613YS02001616        0.66      0.66      0.70      0.01         0.01
  YS02001616YS02001619        0.65      0.65      0.66      0.01         0.01
  YS02001619YS02001622        0.65      0.65      0.65      0.74         0.61
  YS02001622YS02001625        0.65      0.65      0.82      0.01         0.01
  YS02001625YS02001629        0.60      0.60      0.82      0.01         0.01
  YS02001629YS02163301        0.82      0.82      0.83      0.16         0.16
  YS02001633YS02163601        0.84      0.84      0.88      0.33         0.32
  YS02001641YS02001644        0.76      0.78      0.76      1.40         0.74
  YS02001644YS02001647        0.55      0.55      0.76      0.03         0.01
  YS02001647YS02001649        0.55      0.55      0.66      0.01         0.01
  YS02001649YS02001757        0.65      0.66      0.72      0.09         0.04
  YS02001652YS02001649        0.50      0.50      0.66      0.01         0.01
  YS02001655YS02001652        0.34      0.34      0.48      0.01         0.01
  YS02001658YS02001655        0.18      0.18      0.34      0.01         0.01
  YS02001661YS02001658        0.01      0.01      0.18      0.01         0.01
  YS02001664YS02001661        0.01      0.01      0.07      0.01         0.01
  YS02001745YS02001748        0.01      0.01      0.14      0.01         0.01
  YS02001748YS02001751        0.16      0.16      0.25      0.01         0.01
  YS02001751YS02001754        0.25      0.25      0.39      0.01         0.01
  YS02001754YS02001757        0.43      0.43      0.72      0.01         0.01
  YS02001757CaochengTiaoxuchi        0.71      0.72      1.80      0.33         0.29
  YS02001759YS02001757        0.63      0.63      0.72      0.01         0.01
  YS02001762YS02001759        0.60      0.60      0.63      0.01         0.02
  YS02001765YS02001762        0.55      0.55      0.60      0.01         0.01
  YS02001767YS02001765        0.53      0.53      0.55      0.01         0.02
  YS02001770YS02001767        0.52      0.52      0.53      0.48         0.38
  YS02001774YS02001770        0.49      0.49      0.58      0.01         0.01
  YS02001779YS02001774        0.39      0.39      0.58      0.01         0.01
  YS02001783YS02001784        0.46      0.48      0.46      0.63         0.46
  YS02001784YS02001785        0.36      0.46      0.36      0.85         0.36
  YS02001786YS02001788        0.01      0.36      0.01      0.73         0.01
  YS02001790YS02001791        0.01      0.01      0.01      0.44         0.01
  YS02001793JiankangQianchi        0.01      0.01      7.44      0.01         0.01
  YS02001882YS02001884        0.43      0.43      0.44      0.01         0.01
  YS02001884YS02001887        0.46      0.46      0.47      0.01         0.01
  YS02001887YS02001890        0.48      0.48      0.49      0.09         0.01
  YS02001890YS02001895        0.42      0.42      0.51      0.01         0.01
  YS02001895YS02001898        0.41      0.41      0.42      0.01         0.01
  YS02001898YS02001901        0.42      0.42      0.46      0.01         0.01
  YS02001901YS02001904        0.45      0.45      0.46      0.01         0.01
  YS02001904YS02001907        0.45      0.45      0.71      0.01         0.01
  YS02001907YS02006553        0.86      0.86      0.92      0.01         0.01
  YS02001910YS02001907        0.51      0.51      0.69      0.01         0.01
  YS02001915YS02001910        0.42      0.42      0.51      0.01         0.01
  YS02001918YS02001915        0.34      0.34      0.42      0.01         0.01
  YS02001920YS02001918        0.34      0.34      0.36      0.01         0.01
  YS02001923YS02001920        0.31      0.31      0.36      0.01         0.01
  YS02001926YS02001923        0.05      0.05      0.09      0.01         0.01
  YS02001929YS02001926        0.01      0.01      0.09      0.01         0.01
  YS02006553YS02006556        0.60      0.60      0.71      0.01         0.01
  YS02006556YS02006558        0.65      0.65      0.72      0.01         0.01
  YS02006558YS02006561        0.38      0.58      0.38      0.80         0.38
  YS02006561YS02001783        0.31      0.31      0.48      0.01         0.01
  YS02163301YS02001633        0.83      0.83      0.86      0.01         0.01
  YS02163601YS02164001        0.79      0.79      0.88      0.08         0.01
  YS02164001YS02001641        0.78      0.79      0.78      0.66         0.58
  
  
  ***************
  Pumping Summary
  ***************
  
  ---------------------------------------------------------------------------------------------------------
                                                  Min       Avg       Max     Total     Power    % Time Off
                        Percent   Number of      Flow      Flow      Flow    Volume     Usage    Pump Curve
  Pump                 Utilized   Start-Ups       LPS       LPS       LPS  10^6 ltr     Kw-hr    Low   High
  ---------------------------------------------------------------------------------------------------------
  CC-R1                   14.96           4      0.00    683.00    683.00     2.944     55.11    0.0   12.8
  CC-R2                   12.94           2      0.00    683.00    683.00     2.546     47.81    0.0   14.5
  CC-S1                   46.73          17      0.00    200.00    200.00     2.692     16.67    0.0    0.0
  CC-S2                   41.35          26      0.00    200.00    200.00     2.382     14.81    0.0    0.0
  JK-R1                    6.59          13      0.00   1000.00   1000.00     1.897     19.26    0.0    0.0
  JK-R2                    3.06           8      0.00   1000.00   1000.00     0.881      7.44    0.0    0.0
  JK-S                    11.31          14      0.00    300.00    300.00     0.977     16.18    0.0    0.0
  

  Analysis begun on:  Wed Jan 15 10:40:49 2025
  Analysis ended on:  Wed Jan 15 10:40:51 2025
  Total elapsed time: 00:00:02