
  EPA STORM WATER MANAGEMENT MODEL - VERSION 5.2 (Build 5.2.4)
  PYSWMM TOOLKIT API - VERSION v1.0 (2023-11-27)
  ------------------------------------------------------------

  WARNING 04: minimum elevation drop used for Conduit WS02004404WS02004405
  WARNING 03: negative offset ignored for Link YS02001904YS02001907
  
  ****************
  Analysis Options
  ****************
  Flow Units ............... LPS
  Process Models:
    Rainfall/Runoff ........ YES
    RDII ................... NO
    Snowmelt ............... NO
    Groundwater ............ NO
    Flow Routing ........... YES
    Ponding Allowed ........ NO
    Water Quality .......... NO
  Infiltration Method ...... HORTON
  Flow Routing Method ...... DYNWAVE
  Surcharge Method ......... EXTRAN
  Starting Date ............ 08/28/2015 08:00:00
  Ending Date .............. 08/28/2015 16:00:00
  Antecedent Dry Days ...... 8.0
  Report Time Step ......... 00:01:00
  Wet Time Step ............ 00:01:00
  Dry Time Step ............ 00:01:00
  Routing Time Step ........ 30.00 sec
  Variable Time Step ....... YES
  Maximum Trials ........... 8
  Number of Threads ........ 4
  Head Tolerance ........... 0.001500 m
  
  
  **************************        Volume         Depth
  Runoff Quantity Continuity     hectare-m            mm
  **************************     ---------       -------
  Total Precipitation ......         2.995        90.301
  Evaporation Loss .........         0.000         0.000
  Infiltration Loss ........         0.106         3.201
  Surface Runoff ...........         2.857        86.119
  Final Storage ............         0.033         0.997
  Continuity Error (%) .....        -0.018
  
  
  **************************        Volume        Volume
  Flow Routing Continuity        hectare-m      10^6 ltr
  **************************     ---------     ---------
  Dry Weather Inflow .......         0.025         0.251
  Wet Weather Inflow .......         2.856        28.565
  Groundwater Inflow .......         0.000         0.000
  RDII Inflow ..............         0.000         0.000
  External Inflow ..........         0.083         0.834
  External Outflow .........         1.855        18.548
  Flooding Loss ............         1.162        11.616
  Evaporation Loss .........         0.000         0.000
  Exfiltration Loss ........         0.000         0.000
  Initial Stored Volume ....         0.243         2.431
  Final Stored Volume ......         0.196         1.963
  Continuity Error (%) .....        -0.143
  
  
  *************************
  Highest Continuity Errors
  *************************
  Node YS02001884 (5.19%)
  Node YS02001583 (-3.37%)
  
  
  ***************************
  Time-Step Critical Elements
  ***************************
  Link WS02006252WS02006251 (43.18%)
  Link WS02006238WS02006235 (17.52%)
  Link WS02006235WS02006234 (9.30%)
  Link WS02004404WS02004405 (8.48%)
  Link YS02001791YS02001793 (7.53%)
  
  
  ********************************
  Highest Flow Instability Indexes
  ********************************
  Link WS02006113WS02006111 (53)
  Link WS02006111WS02006112 (27)
  Link WS02006238WS02006235 (17)
  Link WS02006252WS02006251 (15)
  Link WS02006256WS02006235 (14)
  
  
  *********************************
  Most Frequent Nonconverging Nodes
  *********************************
  Node CC-1 (10.68%)
  Node CC-2 (10.68%)
  Node JK-1 (10.68%)
  Node JK-2 (10.68%)
  Node WSC (10.68%)
  
  
  *************************
  Routing Time Step Summary
  *************************
  Minimum Time Step           :     0.00 sec
  Average Time Step           :     1.82 sec
  Maximum Time Step           :     7.04 sec
  % of Time in Steady State   :     0.00
  Average Iterations per Step :     3.01
  % of Steps Not Converging   :    10.68
  Time Step Frequencies       :
     30.000 - 13.228 sec      :     0.00 %
     13.228 -  5.833 sec      :     6.76 %
      5.833 -  2.572 sec      :    16.55 %
      2.572 -  1.134 sec      :    26.23 %
      1.134 -  0.500 sec      :    50.46 %
  
  
  ***************************
  Subcatchment Runoff Summary
  ***************************
  
  ------------------------------------------------------------------------------------------------------------------------------
                            Total      Total      Total      Total     Imperv       Perv      Total       Total     Peak  Runoff
                           Precip      Runon       Evap      Infil     Runoff     Runoff     Runoff      Runoff   Runoff   Coeff
  Subcatchment                 mm         mm         mm         mm         mm         mm         mm    10^6 ltr      LPS
  ------------------------------------------------------------------------------------------------------------------------------
  sub60                     90.30       0.00       0.00       1.89      78.26       8.95      87.21        1.15   723.58   0.966
  sub61                     90.30       0.00       0.00       2.75      73.82      12.61      86.43        1.59  1007.38   0.957
  sub62                     90.30       0.00       0.00       1.26      81.79       5.97      87.76        2.40  1437.83   0.972
  sub63                     90.30       0.00       0.00       5.11      63.15      21.08      84.22        1.91  1172.03   0.933
  sub64                     90.30       0.00       0.00       2.58      75.55      10.97      86.52        2.08  1198.31   0.958
  sub65                     90.30       0.00       0.00       2.23      77.31       9.51      86.82        2.39  1345.27   0.961
  sub66                     90.30       0.00       0.00       6.40      63.03      19.79      82.83        3.86  1891.99   0.917
  sub67                     90.30       0.00       0.00       1.20      81.84       6.02      87.86        1.63  1064.16   0.973
  sub68                     90.30       0.00       0.00       2.28      76.47      10.37      86.84        2.39  1469.39   0.962
  sub69                     90.30       0.00       0.00       2.08      76.64      11.47      88.11        3.26  1789.44   0.976
  sub70                     90.30       0.00       0.00       7.00      59.43      23.70      83.13        2.40  1072.03   0.921
  sub71                     90.30       0.00       0.00       1.30      81.75       5.93      87.68        2.29  1292.71   0.971
  sub72                     90.30       0.00       0.00       1.16      82.57       5.17      87.74        1.21   637.98   0.972
  
  
  ******************
  Node Depth Summary
  ******************
  
  ---------------------------------------------------------------------------------
                                 Average  Maximum  Maximum  Time of Max    Reported
                                   Depth    Depth      HGL   Occurrence   Max Depth
  Node                 Type       Meters   Meters   Meters  days hr:min      Meters
  ---------------------------------------------------------------------------------
  WS02003060           JUNCTION     0.25     0.38     5.31     0  02:48        0.38
  WS02003066           JUNCTION     0.20     0.30     5.85     0  02:48        0.30
  WS02003067           JUNCTION     0.52     0.70     6.02     0  02:47        0.70
  WS02003069           JUNCTION     0.28     0.43     5.01     0  02:49        0.43
  WS02003072           JUNCTION     0.34     0.50     4.87     0  02:49        0.50
  WS02003073           JUNCTION     0.19     0.30     4.36     0  02:50        0.30
  WS02004401           JUNCTION     0.61     0.85     6.85     0  02:45        0.85
  WS02004402           JUNCTION     0.65     0.88     6.84     0  02:45        0.88
  WS02004403           JUNCTION     0.67     0.89     6.82     0  02:45        0.89
  WS02004404           JUNCTION     0.75     0.96     6.81     0  02:46        0.96
  WS02004405           JUNCTION     0.74     0.96     6.81     0  02:46        0.96
  WS02004406           JUNCTION     0.75     0.96     6.79     0  02:46        0.96
  WS02004407           JUNCTION     0.19     0.30     6.61     0  02:46        0.30
  WS02004409           JUNCTION     0.42     0.67     6.44     0  02:46        0.67
  WS02004410           JUNCTION     0.44     0.68     6.40     0  02:47        0.68
  WS02004411           JUNCTION     0.46     0.69     6.37     0  02:47        0.69
  WS02004412           JUNCTION     0.48     0.70     6.34     0  02:47        0.70
  WS02004413           JUNCTION     0.64     0.86     6.33     0  02:47        0.86
  WS02006109           JUNCTION     0.69     1.39     8.00     0  02:02        1.39
  WS02006110           JUNCTION     0.69     1.21     7.79     0  02:56        1.10
  WS02006111           JUNCTION     0.19     0.29     6.99     0  02:35        0.29
  WS02006112           JUNCTION     0.78     1.12     7.00     0  03:16        1.05
  WS02006113           JUNCTION     0.29     0.46     7.35     0  02:24        0.46
  WS02006115           JUNCTION     0.50     0.75     6.89     0  02:45        0.75
  WS02006116           JUNCTION     0.59     0.83     6.87     0  02:45        0.83
  WS02006228           JUNCTION     0.68     1.45     8.10     0  02:02        1.45
  WS02006229           JUNCTION     0.65     1.36     8.06     0  02:02        1.36
  WS02006230           JUNCTION     0.66     1.53     8.28     0  02:55        1.16
  WS02006231           JUNCTION     0.45     1.29     8.41     0  03:10        0.91
  WS02006232           JUNCTION     0.59     1.36     8.40     0  03:10        1.12
  WS02006234           JUNCTION     0.52     1.48     8.64     0  02:00        1.15
  WS02006235           JUNCTION     0.56     1.56     8.72     0  02:00        1.24
  WS02006238           JUNCTION     0.59     1.60     8.75     0  03:10        1.28
  WS02006239           JUNCTION     0.57     1.62     8.83     0  02:00        1.27
  WS02006240           JUNCTION     0.54     1.78     9.07     0  02:00        1.24
  WS02006242           JUNCTION     0.61     1.55     8.82     0  02:00        1.31
  WS02006243           JUNCTION     0.52     1.48     8.90     0  02:00        1.20
  WS02006245           JUNCTION     0.52     1.56     9.04     0  02:00        1.17
  WS02006247           JUNCTION     0.54     1.47     8.97     0  02:00        1.17
  WS02006248           JUNCTION     0.50     1.10     8.69     0  02:00        1.09
  WS02006249           JUNCTION     0.53     1.09     8.69     0  02:01        1.09
  WS02006251           JUNCTION     0.53     1.28     8.95     0  03:20        1.26
  WS02006252           JUNCTION     0.39     1.50     9.74     0  00:00        0.83
  WS02006256           JUNCTION     0.98     2.35     9.28     0  00:00        2.35
  WSF200               JUNCTION     0.18     0.29     5.52     0  02:48        0.29
  YS02001580           JUNCTION     0.10     0.94     9.48     0  02:01        0.90
  YS02001583           JUNCTION     0.13     0.90     9.39     0  02:01        0.82
  YS02001586           JUNCTION     0.21     1.13     9.30     0  02:01        1.13
  YS02001590           JUNCTION     0.31     1.40     9.26     0  02:01        1.40
  YS02001593           JUNCTION     0.24     1.32     9.18     0  02:01        1.28
  YS02001596           JUNCTION     0.32     1.76     9.18     0  02:49        1.76
  YS02001600           JUNCTION     0.40     1.87     9.00     0  02:01        1.87
  YS02001601           JUNCTION     0.59     2.06     8.90     0  02:01        2.06
  YS02001602           JUNCTION     0.50     1.87     8.77     0  02:06        1.87
  YS02001605           JUNCTION     0.47     1.78     8.68     0  01:53        1.78
  YS02001607           JUNCTION     0.46     1.68     8.53     0  02:34        1.68
  YS02001610           JUNCTION     0.51     1.68     8.48     0  02:07        1.68
  YS02001613           JUNCTION     0.47     1.68     8.52     0  02:28        1.68
  YS02001616           JUNCTION     0.39     1.61     8.52     0  02:22        1.61
  YS02001619           JUNCTION     0.37     1.61     8.54     0  02:22        1.61
  YS02001622           JUNCTION     0.36     1.59     8.49     0  02:34        1.58
  YS02001625           JUNCTION     0.63     1.78     8.38     0  02:07        1.78
  YS02001629           JUNCTION     0.49     1.85     8.40     0  02:09        1.85
  YS02001633           JUNCTION     0.57     2.01     8.47     0  02:28        2.01
  YS02001641           JUNCTION     0.56     1.97     8.40     0  02:28        1.96
  YS02001644           JUNCTION     0.55     1.92     8.35     0  02:13        1.92
  YS02001647           JUNCTION     0.34     1.80     8.41     0  02:28        1.76
  YS02001649           JUNCTION     0.39     2.05     8.44     0  02:28        2.01
  YS02001652           JUNCTION     0.27     1.88     8.47     0  02:24        1.86
  YS02001655           JUNCTION     0.22     1.69     8.54     0  02:24        1.68
  YS02001658           JUNCTION     0.16     1.48     8.62     0  02:24        1.45
  YS02001661           JUNCTION     0.18     1.28     8.68     0  02:24        1.27
  YS02001664           JUNCTION     0.07     0.78     8.70     0  02:24        0.76
  YS02001745           JUNCTION     0.09     0.96     8.48     0  02:24        0.96
  YS02001748           JUNCTION     0.16     1.38     8.46     0  02:24        1.36
  YS02001751           JUNCTION     0.19     1.55     8.43     0  02:24        1.55
  YS02001754           JUNCTION     0.25     1.82     8.43     0  02:28        1.78
  YS02001757           JUNCTION     0.42     2.17     8.43     0  02:28        2.09
  YS02001759           JUNCTION     0.36     2.18     8.54     0  02:28        2.09
  YS02001762           JUNCTION     0.34     2.15     8.55     0  02:28        2.05
  YS02001765           JUNCTION     0.32     2.10     8.55     0  02:28        2.00
  YS02001767           JUNCTION     0.32     2.03     8.52     0  02:28        1.96
  YS02001770           JUNCTION     0.33     1.95     8.44     0  02:22        1.95
  YS02001774           JUNCTION     0.40     2.02     8.45     0  02:28        2.00
  YS02001779           JUNCTION     0.23     1.68     8.37     0  02:14        1.68
  YS02001783           JUNCTION     0.26     1.30     7.44     0  02:28        1.24
  YS02001784           JUNCTION     0.27     1.15     7.22     0  02:28        1.12
  YS02001786           JUNCTION     0.22     0.90     6.93     0  02:28        0.88
  YS02001788           JUNCTION     0.16     0.62     6.60     0  02:21        0.62
  YS02001790           JUNCTION     0.19     0.73     6.37     0  02:24        0.72
  YS02001791           JUNCTION     0.12     0.45     5.92     0  02:25        0.44
  YS02001793           JUNCTION     0.06     0.30     5.13     0  02:16        0.30
  YS02001882           JUNCTION     0.33     1.75     8.46     0  02:28        1.66
  YS02001884           JUNCTION     0.42     1.82     8.44     0  02:28        1.77
  YS02001887           JUNCTION     0.50     1.85     8.39     0  02:28        1.84
  YS02001890           JUNCTION     0.53     1.81     8.32     0  02:10        1.81
  YS02001895           JUNCTION     0.29     1.58     8.33     0  02:28        1.58
  YS02001898           JUNCTION     0.30     1.57     8.30     0  02:26        1.57
  YS02001901           JUNCTION     0.42     1.69     8.30     0  02:34        1.69
  YS02001904           JUNCTION     0.40     1.64     8.27     0  02:34        1.63
  YS02001907           JUNCTION     0.72     1.96     8.25     0  02:10        1.96
  YS02001910           JUNCTION     0.52     2.00     8.51     0  02:24        2.00
  YS02001915           JUNCTION     0.33     1.99     8.71     0  02:25        1.99
  YS02001918           JUNCTION     0.18     1.69     8.76     0  02:25        1.69
  YS02001920           JUNCTION     0.26     1.78     8.78     0  02:25        1.77
  YS02001923           JUNCTION     0.14     1.54     8.80     0  02:25        1.54
  YS02001926           JUNCTION     0.18     1.39     8.83     0  02:25        1.38
  YS02001929           JUNCTION     0.10     1.16     8.85     0  02:24        1.16
  YS02006553           JUNCTION     0.73     2.01     8.29     0  02:28        1.98
  YS02006556           JUNCTION     0.70     2.02     8.33     0  02:28        1.96
  YS02006558           JUNCTION     0.74     2.05     8.32     0  02:28        2.02
  YS02006561           JUNCTION     0.16     0.98     7.64     0  02:28        0.91
  YS02163301           JUNCTION     0.51     1.93     8.44     0  02:09        1.93
  YS02163601           JUNCTION     0.61     2.06     8.46     0  02:28        2.02
  YS02164001           JUNCTION     0.54     1.98     8.44     0  02:28        1.94
  CC-1                 OUTFALL      0.00     0.00     0.00     0  00:00        0.00
  CC-2                 OUTFALL      0.00     0.00     0.00     0  00:00        0.00
  JK-1                 OUTFALL      0.00     0.00     0.00     0  00:00        0.00
  JK-2                 OUTFALL      0.00     0.00     0.00     0  00:00        0.00
  WSC                  OUTFALL      0.19     0.30     0.97     0  02:50        0.30
  CC-storage           STORAGE      0.91     1.96     7.46     0  02:47        1.96
  JK-storage           STORAGE      2.60     4.22     5.02     0  02:45        4.20
  
  
  *******************
  Node Inflow Summary
  *******************
  
  -------------------------------------------------------------------------------------------------
                                  Maximum  Maximum                  Lateral       Total        Flow
                                  Lateral    Total  Time of Max      Inflow      Inflow     Balance
                                   Inflow   Inflow   Occurrence      Volume      Volume       Error
  Node                 Type           LPS      LPS  days hr:min    10^6 ltr    10^6 ltr     Percent
  -------------------------------------------------------------------------------------------------
  WS02003060           JUNCTION     16.53   552.04     0  02:48       0.476        6.78       0.033
  WS02003066           JUNCTION      0.00   535.39     0  02:48           0        6.31       0.021
  WS02003067           JUNCTION      0.00   535.36     0  02:47           0        6.31       0.066
  WS02003069           JUNCTION      0.32   552.21     0  02:48     0.00922        6.79       0.057
  WS02003072           JUNCTION      0.00   551.99     0  02:49           0        6.78       0.101
  WS02003073           JUNCTION      1.82   553.60     0  02:49      0.0524        6.83       0.081
  WS02004401           JUNCTION      0.00   537.74     0  02:45           0        6.41       0.159
  WS02004402           JUNCTION      0.00   537.24     0  02:45           0         6.4       0.162
  WS02004403           JUNCTION      0.00   537.34     0  02:45           0        6.39       0.158
  WS02004404           JUNCTION      0.16   537.04     0  02:45     0.00467        6.39       0.131
  WS02004405           JUNCTION      0.04   537.06     0  02:46      0.0011        6.38       0.197
  WS02004406           JUNCTION      0.00   537.24     0  02:46           0        6.37       0.325
  WS02004407           JUNCTION      0.00   536.88     0  02:46           0        6.35       0.018
  WS02004409           JUNCTION      0.00   536.69     0  02:46           0        6.34       0.042
  WS02004410           JUNCTION      0.00   536.22     0  02:46           0        6.34       0.068
  WS02004411           JUNCTION      0.00   535.95     0  02:47           0        6.34       0.087
  WS02004412           JUNCTION      0.00   535.66     0  02:47           0        6.33       0.117
  WS02004413           JUNCTION      0.00   535.63     0  02:47           0        6.32       0.208
  WS02006109           JUNCTION      1.23   558.21     0  03:10      0.0354        6.46       0.123
  WS02006110           JUNCTION      0.00   558.97     0  03:10           0        6.45       0.104
  WS02006111           JUNCTION      0.00   563.16     0  02:35           0        6.44       0.008
  WS02006112           JUNCTION      0.00   544.46     0  02:35           0        6.44       0.274
  WS02006113           JUNCTION      0.00   580.91     0  02:02           0        6.44       0.033
  WS02006115           JUNCTION      0.00   549.34     0  02:35           0        6.42       0.101
  WS02006116           JUNCTION      0.00   540.48     0  02:48           0        6.42       0.086
  WS02006228           JUNCTION      0.00   556.46     0  03:11           0        6.43       0.036
  WS02006229           JUNCTION      0.00   556.10     0  03:11           0        6.43       0.075
  WS02006230           JUNCTION     10.28   589.42     0  02:46       0.296        6.43       0.036
  WS02006231           JUNCTION      0.00   578.59     0  03:15           0        6.14       0.021
  WS02006232           JUNCTION      0.00   577.76     0  03:15           0        6.15       0.152
  WS02006234           JUNCTION      0.00   573.46     0  03:15           0        6.14      -0.112
  WS02006235           JUNCTION      0.00   566.79     0  03:15           0        6.17       0.119
  WS02006238           JUNCTION      0.00   424.80     0  03:21           0        5.37      -0.164
  WS02006239           JUNCTION      0.00   426.20     0  03:21           0        5.35      -0.200
  WS02006240           JUNCTION      0.00   425.75     0  03:21           0        5.34      -0.022
  WS02006242           JUNCTION      0.00   425.08     0  03:21           0        5.33      -0.000
  WS02006243           JUNCTION      0.00   424.32     0  03:21           0        5.32      -0.171
  WS02006245           JUNCTION      0.00   423.78     0  03:21           0        5.33       0.250
  WS02006247           JUNCTION      0.00   424.10     0  03:21           0        5.33       0.006
  WS02006248           JUNCTION      0.00   425.23     0  03:36           0        5.33       0.010
  WS02006249           JUNCTION      0.00   488.94     0  01:50           0        5.55       0.242
  WS02006251           JUNCTION      0.08   405.20     0  03:20     0.00222        5.55       0.003
  WS02006252           JUNCTION      0.00   400.00     0  00:00           0        5.54      -0.135
  WS02006256           JUNCTION      0.00   300.00     0  00:00           0        1.18      -0.723
  WSF200               JUNCTION      0.00   535.42     0  02:48           0        6.31       0.006
  YS02001580           JUNCTION      0.00    56.93     0  02:01           0     0.00412      -0.084
  YS02001583           JUNCTION      0.00    91.02     0  02:01           0      0.0159      -3.259
  YS02001586           JUNCTION   1072.03  1072.03     0  02:26         2.4        2.41       0.034
  YS02001590           JUNCTION      0.00   318.50     0  02:28           0        1.65      -0.028
  YS02001593           JUNCTION      0.00   318.18     0  02:28           0        1.65       0.003
  YS02001596           JUNCTION      0.00   317.95     0  02:32           0        1.65      -0.016
  YS02001600           JUNCTION      0.00   318.14     0  02:33           0        1.65       0.027
  YS02001601           JUNCTION   1789.44  2106.95     0  02:25        3.26        4.91       0.019
  YS02001602           JUNCTION      0.00   494.70     0  02:01           0         2.7       0.019
  YS02001605           JUNCTION      0.00   494.13     0  02:01           0        2.52       0.026
  YS02001607           JUNCTION      0.00   493.24     0  02:01           0        2.52       0.076
  YS02001610           JUNCTION      0.00   954.02     0  02:28           0        3.05       0.077
  YS02001613           JUNCTION      0.00   618.50     0  02:28           0        2.36       0.066
  YS02001616           JUNCTION      0.00   620.40     0  02:28           0        2.36       0.016
  YS02001619           JUNCTION   1891.99  1891.99     0  02:26        3.86        5.69      -0.002
  YS02001622           JUNCTION      0.00  1053.83     0  02:28           0         5.1       0.001
  YS02001625           JUNCTION      0.00  1505.19     0  02:29           0        5.54       0.191
  YS02001629           JUNCTION      0.00   895.39     0  02:05           0        3.87       0.002
  YS02001633           JUNCTION   1345.47  1345.47     0  02:25         2.4        5.75       0.062
  YS02001641           JUNCTION      0.00  1236.01     0  02:05           0        5.24       0.054
  YS02001644           JUNCTION   1198.34  2195.32     0  02:25        2.08        7.38       0.046
  YS02001647           JUNCTION      0.00  1545.46     0  02:07           0        6.16       0.001
  YS02001649           JUNCTION      0.00  1777.01     0  02:08           0        8.02       0.004
  YS02001652           JUNCTION      0.00  1177.33     0  02:25           0        1.92      -0.056
  YS02001655           JUNCTION      0.15  1177.18     0  02:25     0.00443        1.92       0.025
  YS02001658           JUNCTION      0.00  1177.22     0  02:25           0        1.91      -0.011
  YS02001661           JUNCTION      0.00  1177.26     0  02:25           0        1.91      -0.025
  YS02001664           JUNCTION   1172.03  1172.03     0  02:25        1.91        1.91      -0.006
  YS02001745           JUNCTION    723.59   723.59     0  02:25        1.15        1.15       0.097
  YS02001748           JUNCTION      0.04   727.04     0  02:25      0.0013        1.15      -0.159
  YS02001751           JUNCTION      0.01   727.19     0  02:25    0.000317        1.15       0.055
  YS02001754           JUNCTION      0.26   727.76     0  02:25     0.00749        1.16      -0.115
  YS02001757           JUNCTION      0.00  2892.73     0  02:18           0        12.5       0.011
  YS02001759           JUNCTION   1007.42  1286.26     0  02:25        1.59        3.43      -0.007
  YS02001762           JUNCTION      0.00   670.28     0  02:16           0        1.84       0.007
  YS02001765           JUNCTION      0.00   670.52     0  02:16           0        1.84       0.003
  YS02001767           JUNCTION      0.54   670.90     0  02:16      0.0154        1.84       0.007
  YS02001770           JUNCTION   1437.98  1437.98     0  02:25        2.41        2.45      -0.018
  YS02001774           JUNCTION      0.00   851.63     0  02:27           0       0.597       0.160
  YS02001779           JUNCTION      0.01   851.45     0  02:27    0.000144       0.551      -0.020
  YS02001783           JUNCTION      0.00  1167.48     0  02:24           0        5.07       0.004
  YS02001784           JUNCTION      1.06  1168.24     0  02:24      0.0305         5.1       0.011
  YS02001786           JUNCTION      0.06  1168.36     0  02:24     0.00162         5.1       0.013
  YS02001788           JUNCTION      0.07  1168.82     0  02:24     0.00204         5.1       0.006
  YS02001790           JUNCTION      0.15  1176.55     0  02:25     0.00446         5.1       0.022
  YS02001791           JUNCTION      0.00  1299.88     0  02:23           0         5.1      -0.036
  YS02001793           JUNCTION      0.00  1250.17     0  02:32           0         5.1       0.005
  YS02001882           JUNCTION      0.00    27.83     0  02:06           0      0.0134       5.405
  YS02001884           JUNCTION      0.00    40.89     0  02:05           0      0.0496       5.471
  YS02001887           JUNCTION   1064.61  1064.61     0  02:25        1.65        1.68       0.262
  YS02001890           JUNCTION      0.00  1066.03     0  02:25           0        1.64       0.317
  YS02001895           JUNCTION      0.00   518.65     0  02:28           0        1.41       0.133
  YS02001898           JUNCTION      0.00   518.35     0  02:28           0        1.41       0.008
  YS02001901           JUNCTION      0.00   517.85     0  02:28           0        1.41       0.241
  YS02001904           JUNCTION      0.00   517.99     0  02:26           0        1.42       0.202
  YS02001907           JUNCTION      0.00  2761.17     0  02:25           0        5.06       0.359
  YS02001910           JUNCTION      0.00  1936.21     0  02:25           0        3.58       0.205
  YS02001915           JUNCTION   1292.73  1935.79     0  02:25        2.29         3.6       0.044
  YS02001918           JUNCTION      0.00   644.71     0  02:25           0        1.31       0.021
  YS02001920           JUNCTION      2.87   645.09     0  02:25      0.0827         1.3       0.072
  YS02001923           JUNCTION      0.04   640.45     0  02:25     0.00109        1.22      -0.006
  YS02001926           JUNCTION      0.05   640.16     0  02:25      0.0015        1.21       0.009
  YS02001929           JUNCTION    637.98   637.98     0  02:26        1.21        1.21      -0.010
  YS02006553           JUNCTION      0.00   806.11     0  02:43           0        2.83       0.425
  YS02006556           JUNCTION      0.00   805.73     0  02:43           0        2.84       0.285
  YS02006558           JUNCTION   1470.27  1470.27     0  02:25        2.42        5.16       0.076
  YS02006561           JUNCTION      0.00  1167.19     0  02:28           0        5.07      -0.002
  YS02163301           JUNCTION      0.00   897.08     0  02:05           0        3.88       0.040
  YS02163601           JUNCTION      0.11  1235.51     0  02:05     0.00317        5.24       0.094
  YS02164001           JUNCTION      0.00  1235.12     0  02:05           0        5.24       0.041
  CC-1                 OUTFALL       0.00   683.00     0  00:00           0        4.29       0.000
  CC-2                 OUTFALL       0.00   683.00     0  00:00           0        3.57       0.000
  JK-1                 OUTFALL       0.00  1000.00     0  00:00           0         2.5       0.000
  JK-2                 OUTFALL       0.00  1000.00     0  00:00           0        1.37       0.000
  WSC                  OUTFALL       0.00   553.31     0  02:50           0        6.82       0.000
  CC-storage           STORAGE       0.00  2893.48     0  02:18           0        14.8      -0.182
  JK-storage           STORAGE       0.00  1256.90     0  02:25           0        5.26       0.152
  
  
  **********************
  Node Surcharge Summary
  **********************
  
  Surcharging occurs when water rises above the top of the highest conduit.
  ---------------------------------------------------------------------
                                               Max. Height   Min. Depth
                                   Hours       Above Crown    Below Rim
  Node                 Type      Surcharged         Meters       Meters
  ---------------------------------------------------------------------
  WS02006109           JUNCTION        2.43          0.565        1.255
  WS02006110           JUNCTION        0.66          0.296        1.554
  WS02006112           JUNCTION        0.69          0.117        1.563
  WS02006228           JUNCTION        2.42          0.621        1.579
  WS02006229           JUNCTION        2.47          0.561        1.889
  WS02006230           JUNCTION        0.67          0.452        1.118
  WS02006231           JUNCTION        0.81          0.580        0.950
  WS02006232           JUNCTION        2.64          0.663        0.817
  WS02006234           JUNCTION        1.16          0.764        0.476
  WS02006235           JUNCTION        2.42          0.846        0.444
  WS02006238           JUNCTION        2.53          0.881        0.549
  WS02006239           JUNCTION        2.42          0.878        0.412
  WS02006240           JUNCTION        2.45          1.071        0.319
  WS02006242           JUNCTION        2.69          0.820        0.000
  WS02006243           JUNCTION        2.48          0.770        0.000
  WS02006245           JUNCTION        2.48          0.850        0.000
  WS02006247           JUNCTION        2.53          0.760        0.000
  WS02006248           JUNCTION        2.46          0.380        0.000
  WS02006249           JUNCTION        2.51          0.390        0.000
  WS02006251           JUNCTION        0.89          0.252        0.928
  WS02006252           JUNCTION        3.21          1.100        0.000
  WS02006256           JUNCTION        6.99          2.050        0.000
  YS02001580           JUNCTION        0.88          0.340        0.110
  YS02001583           JUNCTION        0.89          0.256        0.244
  YS02001586           JUNCTION        1.03          0.510        0.000
  YS02001590           JUNCTION        1.11          0.750        0.000
  YS02001593           JUNCTION        1.11          0.703        0.137
  YS02001596           JUNCTION        1.24          1.030        0.040
  YS02001600           JUNCTION        1.42          1.190        0.000
  YS02001601           JUNCTION        1.78          1.440        0.000
  YS02001602           JUNCTION        1.67          1.270        0.000
  YS02001605           JUNCTION        1.61          1.180        0.000
  YS02001607           JUNCTION        1.11          0.680        0.000
  YS02001610           JUNCTION        1.13          0.680        0.000
  YS02001613           JUNCTION        1.10          0.678        0.022
  YS02001616           JUNCTION        1.06          0.610        0.000
  YS02001619           JUNCTION        1.05          0.610        0.000
  YS02001622           JUNCTION        1.05          0.590        0.030
  YS02001625           JUNCTION        1.24          0.780        0.000
  YS02001629           JUNCTION        0.98          0.470        0.000
  YS02001633           JUNCTION        1.28          0.993        0.067
  YS02001641           JUNCTION        1.22          0.967        0.133
  YS02001644           JUNCTION        1.18          0.920        0.000
  YS02001647           JUNCTION        0.97          0.798        0.102
  YS02001649           JUNCTION        1.09          1.050        0.000
  YS02001652           JUNCTION        0.93          0.845        0.285
  YS02001655           JUNCTION        0.78          0.693        0.507
  YS02001658           JUNCTION        0.45          0.476        0.824
  YS02001661           JUNCTION        0.14          0.208        1.182
  YS02001748           JUNCTION        0.36          0.303        0.887
  YS02001751           JUNCTION        0.63          0.549        0.651
  YS02001754           JUNCTION        0.88          0.767        0.383
  YS02001757           JUNCTION        1.17          1.167        0.043
  YS02001759           JUNCTION        1.08          1.181        0.029
  YS02001762           JUNCTION        1.06          1.150        0.000
  YS02001765           JUNCTION        1.02          1.100        0.000
  YS02001767           JUNCTION        0.99          1.030        0.000
  YS02001770           JUNCTION        0.96          0.920        0.000
  YS02001774           JUNCTION        1.04          1.024        0.026
  YS02001779           JUNCTION        0.87          0.680        0.000
  YS02001783           JUNCTION        0.75          0.498        1.102
  YS02001784           JUNCTION        0.72          0.350        1.140
  YS02001786           JUNCTION        0.58          0.096        1.334
  YS02001882           JUNCTION        0.68          0.745        0.085
  YS02001884           JUNCTION        0.69          0.762        0.108
  YS02001887           JUNCTION        0.73          0.805        0.145
  YS02001890           JUNCTION        0.75          0.760        0.000
  YS02001895           JUNCTION        0.66          0.585        0.165
  YS02001898           JUNCTION        0.65          0.539        0.201
  YS02001901           JUNCTION        0.72          0.693        0.177
  YS02001904           JUNCTION        0.71          0.642        0.208
  YS02001907           JUNCTION        1.08          0.950        0.000
  YS02001910           JUNCTION        0.79          1.000        0.100
  YS02001915           JUNCTION        0.67          0.994        0.006
  YS02001918           JUNCTION        0.57          0.690        0.120
  YS02001920           JUNCTION        0.59          0.776        0.364
  YS02001923           JUNCTION        0.20          0.333        0.487
  YS02001926           JUNCTION        0.24          0.387        0.513
  YS02001929           JUNCTION        0.08          0.159        0.621
  YS02006553           JUNCTION        1.11          1.007        0.183
  YS02006556           JUNCTION        0.91          0.984        0.366
  YS02006558           JUNCTION        0.89          0.949        0.451
  YS02006561           JUNCTION        0.53          0.179        0.971
  YS02163301           JUNCTION        1.25          0.926        0.104
  YS02163601           JUNCTION        1.33          1.058        0.022
  YS02164001           JUNCTION        1.22          0.980        0.120
  
  
  *********************
  Node Flooding Summary
  *********************
  
  Flooding refers to all water that overflows a node, whether it ponds or not.
  --------------------------------------------------------------------------
                                                             Total   Maximum
                                 Maximum   Time of Max       Flood    Ponded
                        Hours       Rate    Occurrence      Volume     Depth
  Node                 Flooded       LPS   days hr:min    10^6 ltr    Meters
  --------------------------------------------------------------------------
  WS02006242              0.01      7.03      0  02:00       0.000     0.000
  WS02006243              0.01     38.99      0  02:00       0.000     0.000
  WS02006245              0.01     15.38      0  02:00       0.000     0.000
  WS02006247              0.01     23.95      0  02:00       0.000     0.000
  WS02006248              0.01     48.76      0  02:00       0.000     0.000
  WS02006249              0.85     79.75      0  03:31       0.201     0.000
  WS02006252              0.01    245.63      0  00:00       0.000     0.000
  WS02006256              1.10    293.19      0  00:00       0.389     0.000
  YS02001586              0.70    754.79      0  02:26       0.755     0.000
  YS02001590              0.01      3.99      0  02:01       0.000     0.000
  YS02001600              0.01      1.85      0  02:01       0.000     0.000
  YS02001601              0.97   1708.94      0  02:25       2.209     0.000
  YS02001602              0.85     61.98      0  02:43       0.177     0.000
  YS02001605              0.01     12.65      0  01:53       0.000     0.000
  YS02001607              0.01      0.25      0  02:34       0.000     0.000
  YS02001610              0.76    953.83      0  02:28       1.227     0.000
  YS02001616              0.04     15.17      0  02:34       0.000     0.000
  YS02001619              0.11    227.61      0  02:26       0.051     0.000
  YS02001625              0.74   1505.01      0  02:29       2.176     0.000
  YS02001629              0.18    239.18      0  02:25       0.071     0.000
  YS02001644              0.37   2195.12      0  02:25       1.270     0.000
  YS02001649              0.01      6.51      0  02:28       0.000     0.000
  YS02001762              0.01     21.79      0  02:28       0.000     0.000
  YS02001765              0.01     20.36      0  02:28       0.000     0.000
  YS02001767              0.01     13.17      0  02:28       0.000     0.000
  YS02001770              0.09    312.27      0  02:25       0.050     0.000
  YS02001779              0.32    851.02      0  02:27       0.533     0.000
  YS02001890              0.27    548.73      0  02:25       0.222     0.000
  YS02001907              0.51   2760.09      0  02:25       2.285     0.000
  
  
  **********************
  Storage Volume Summary
  **********************
  
  ------------------------------------------------------------------------------------------------
                         Average    Avg   Evap  Exfil     Maximum    Max    Time of Max    Maximum
                          Volume   Pcnt   Pcnt   Pcnt      Volume   Pcnt     Occurrence    Outflow
  Storage Unit           1000 m³   Full   Loss   Loss     1000 m³   Full    days hr:min        LPS
  ------------------------------------------------------------------------------------------------
  CC-storage               2.528   39.4    0.0    0.0       5.463   85.2       0  02:47    1783.53
  JK-storage               0.131   44.9    0.0    0.0       0.212   72.7       0  02:45    2300.00
  
  
  ***********************
  Outfall Loading Summary
  ***********************
  
  -----------------------------------------------------------
                         Flow       Avg       Max       Total
                         Freq      Flow      Flow      Volume
  Outfall Node           Pcnt       LPS       LPS    10^6 ltr
  -----------------------------------------------------------
  CC-1                  20.60    683.00    683.00       4.287
  CC-2                  17.34    683.00    683.00       3.567
  JK-1                   9.26   1000.00   1000.00       2.496
  JK-2                   5.03   1000.00   1000.00       1.372
  WSC                   99.96    277.36    553.31       6.825
  -----------------------------------------------------------
  System                30.44   3643.36   3919.31      18.548
  
  
  ********************
  Link Flow Summary
  ********************
  
  -----------------------------------------------------------------------------
                                 Maximum  Time of Max   Maximum    Max/    Max/
                                  |Flow|   Occurrence   |Veloc|    Full    Full
  Link                 Type          LPS  days hr:min     m/sec    Flow   Depth
  -----------------------------------------------------------------------------
  1                    CONDUIT    553.31     0  02:50      2.82    0.19    0.30
  WS02003060WS02003069 CONDUIT    551.89     0  02:48      1.64    0.22    0.34
  WS02003066WSF200     CONDUIT    535.42     0  02:48      2.85    0.09    0.22
  WS02003067WS02003066 CONDUIT    535.39     0  02:48      1.21    0.17    0.42
  WS02003069WS02003072 CONDUIT    551.99     0  02:49      1.37    0.27    0.39
  WS02003072WS02003073 CONDUIT    551.78     0  02:49      1.43    1.19    0.37
  WS02004401WS02004402 CONDUIT    537.24     0  02:45      0.98    0.64    0.86
  WS02004402WS02004403 CONDUIT    537.34     0  02:45      0.97    0.77    0.88
  WS02004403WS02004404 CONDUIT    536.88     0  02:45      0.92    0.39    0.93
  WS02004404WS02004405 CONDUIT    537.02     0  02:46      1.08    5.26    0.96
  WS02004405WS02004406 CONDUIT    537.24     0  02:46      0.99    1.06    0.96
  WS02004406WS02004407 CONDUIT    536.88     0  02:46      1.04    0.24    0.63
  WS02004407WS02004409 CONDUIT    536.69     0  02:46      1.50    0.19    0.48
  WS02004409WS02004410 CONDUIT    536.22     0  02:46      0.98    0.69    0.67
  WS02004410WS02004411 CONDUIT    535.95     0  02:47      0.94    0.73    0.69
  WS02004411WS02004412 CONDUIT    535.66     0  02:47      0.92    0.76    0.69
  WS02004412WS02004413 CONDUIT    535.63     0  02:47      0.82    0.36    0.78
  WS02004413WS02003067 CONDUIT    535.36     0  02:47      1.11    0.23    0.59
  WS02006109WS02006110 CONDUIT    558.97     0  03:10      1.11    1.07    1.00
  WS02006110WS02006113 CONDUIT    580.91     0  02:02      1.40    0.53    0.79
  WS02006111WS02006112 CONDUIT    544.46     0  02:35      1.81    0.26    0.67
  WS02006112WS02006115 CONDUIT    549.34     0  02:35      0.81    0.32    0.87
  WS02006113WS02006111 CONDUIT    563.16     0  02:35      2.47    0.68    0.46
  WS02006115WS02006116 CONDUIT    540.48     0  02:48      0.97    0.69    0.76
  WS02006116WS02004401 CONDUIT    537.74     0  02:45      0.98    0.74    0.84
  WS02006228WS02006109 CONDUIT    556.98     0  03:10      1.11    2.43    1.00
  WS02006229WS02006228 CONDUIT    556.46     0  03:11      1.14    1.84    1.00
  WS02006230WS02006229 CONDUIT    556.10     0  03:11      1.44   12.38    1.00
  WS02006231WS02006230 CONDUIT    579.14     0  02:46      1.59    8.78    1.00
  WS02006232WS02006231 CONDUIT    578.59     0  03:15      1.50    1.21    1.00
  WS02006234WS02006232 CONDUIT    577.76     0  03:15      1.50    1.17    1.00
  WS02006235WS02006234 CONDUIT    573.46     0  03:15      1.49    6.05    1.00
  WS02006238WS02006235 CONDUIT    423.77     0  02:50      1.45    0.95    1.00
  WS02006239WS02006238 CONDUIT    424.80     0  03:21      1.10    1.36    1.00
  WS02006240WS02006239 CONDUIT    426.20     0  03:21      1.24    1.34    1.00
  WS02006242WS02006240 CONDUIT    425.75     0  03:21      1.13    1.69    1.00
  WS02006243WS02006242 CONDUIT    425.08     0  03:21      1.40    0.91    1.00
  WS02006245WS02006243 CONDUIT    424.32     0  03:21      1.45    1.26    1.00
  WS02006247WS02006245 CONDUIT    423.78     0  03:21      1.43    3.36    1.00
  WS02006248WS02006247 CONDUIT    424.10     0  03:21      1.44    0.92    1.00
  WS02006249WS02006248 CONDUIT    425.23     0  03:36      1.37    2.33    1.00
  WS02006251WS02006249 CONDUIT    488.94     0  01:50      1.99    1.41    1.00
  WS02006252WS02006251 CONDUIT    405.12     0  03:20     24.61    1.49    1.00
  WS02006256WS02006235 CONDUIT    288.91     0  00:00      4.23    3.06    1.00
  WSF200WS02003060     CONDUIT    535.51     0  02:48      2.06    0.12    0.28
  YS02001580YS02001583 CONDUIT     56.93     0  02:01      0.45    0.22    1.00
  YS02001583YS02001586 CONDUIT     91.02     0  02:01      0.39    0.14    1.00
  YS02001586YS02001590 CONDUIT    318.50     0  02:28      1.23    0.56    1.00
  YS02001590YS02001593 CONDUIT    318.18     0  02:28      1.13    2.00    1.00
  YS02001593YS02001596 CONDUIT    317.95     0  02:32      1.73    0.50    1.00
  YS02001596YS02001600 CONDUIT    318.14     0  02:33      1.28    0.62    1.00
  YS02001600YS02001601 CONDUIT    318.04     0  02:28      1.12    0.55    1.00
  YS02001601YS02001602 CONDUIT    494.70     0  02:01      1.75    1.79    1.00
  YS02001602YS02001605 CONDUIT    494.13     0  02:01      1.75   10.46    1.00
  YS02001605YS02001607 CONDUIT    493.24     0  02:01      1.74    2.70    1.00
  YS02001607YS02001610 CONDUIT    492.73     0  02:01      0.63    0.47    1.00
  YS02001610YS02001613 CONDUIT    617.97     0  02:28      0.79    0.71    1.00
  YS02001613YS02001616 CONDUIT    618.50     0  02:28      0.79    0.53    1.00
  YS02001616YS02001619 CONDUIT    620.40     0  02:28      0.79    1.08    1.00
  YS02001619YS02001622 CONDUIT   1053.83     0  02:28      1.34    1.55    1.00
  YS02001622YS02001625 CONDUIT   1053.61     0  02:29      1.34    0.56    1.00
  YS02001625YS02001629 CONDUIT    895.39     0  02:05      1.14    0.43    1.00
  YS02001629YS02163301 CONDUIT    897.08     0  02:05      1.14    1.10    1.00
  YS02001633YS02163601 CONDUIT   1235.40     0  02:05      1.57    1.30    1.00
  YS02001641YS02001644 CONDUIT   1236.35     0  02:05      1.57    4.00    1.00
  YS02001644YS02001647 CONDUIT   1545.46     0  02:07      2.03    0.91    1.00
  YS02001647YS02001649 CONDUIT   1548.79     0  02:06      2.22    0.82    1.00
  YS02001649YS02001757 CONDUIT   1778.77     0  02:08      2.29    1.08    1.00
  YS02001652YS02001649 CONDUIT   1177.54     0  02:25      1.50    0.58    1.00
  YS02001655YS02001652 CONDUIT   1177.33     0  02:25      1.50    0.57    1.00
  YS02001658YS02001655 CONDUIT   1177.03     0  02:25      1.78    0.50    1.00
  YS02001661YS02001658 CONDUIT   1177.22     0  02:25      2.09    0.46    1.00
  YS02001664YS02001661 CONDUIT   1177.26     0  02:25      1.96    0.37    0.89
  YS02001745YS02001748 CONDUIT    726.99     0  02:25      1.91    0.28    0.98
  YS02001748YS02001751 CONDUIT    727.18     0  02:25      1.53    0.37    1.00
  YS02001751YS02001754 CONDUIT    727.50     0  02:25      1.35    0.35    1.00
  YS02001754YS02001757 CONDUIT    727.54     0  02:25      0.93    0.29    1.00
  YS02001757CaochengTiaoxuchi CONDUIT   2893.48     0  02:18      3.68    1.25    1.00
  YS02001759YS02001757 CONDUIT   1286.57     0  02:24      1.64    0.91    1.00
  YS02001762YS02001759 CONDUIT    670.08     0  02:16      0.85    0.77    1.00
  YS02001765YS02001762 CONDUIT    670.28     0  02:16      0.85    0.63    1.00
  YS02001767YS02001765 CONDUIT    670.52     0  02:16      0.85    0.84    1.00
  YS02001770YS02001767 CONDUIT    670.36     0  02:16      0.85    2.66    1.00
  YS02001774YS02001770 CONDUIT    851.63     0  02:27      1.08    0.54    1.00
  YS02001779YS02001774 CONDUIT    851.44     0  02:27      1.08    0.43    1.00
  YS02001783YS02001784 CONDUIT   1167.18     0  02:24      2.32    1.61    1.00
  YS02001784YS02001785 CONDUIT   1168.31     0  02:24      2.32    2.72    1.00
  YS02001786YS02001788 CONDUIT   1168.75     0  02:24      2.48    2.25    0.89
  YS02001788YS02001790 CONDUIT   1176.40     0  02:25      2.71    0.87    0.84
  YS02001790YS02001791 CONDUIT   1299.88     0  02:23      3.45    1.41    0.71
  YS02001791YS02001793 CONDUIT   1250.17     0  02:32      6.72    0.54    0.44
  YS02001793JiankangQianchi CONDUIT   1256.90     0  02:25      2.52    0.10    0.65
  YS02001882YS02001884 CONDUIT     27.83     0  02:06      0.16    0.03    1.00
  YS02001884YS02001887 CONDUIT     40.89     0  02:05      0.12    0.05    1.00
  YS02001887YS02001890 CONDUIT   1066.03     0  02:25      1.36    1.82    1.00
  YS02001890YS02001895 CONDUIT    518.65     0  02:28      0.66    0.24    1.00
  YS02001895YS02001898 CONDUIT    518.35     0  02:28      0.66    0.90    1.00
  YS02001898YS02001901 CONDUIT    517.85     0  02:28      0.66    0.33    1.00
  YS02001901YS02001904 CONDUIT    517.99     0  02:26      0.66    0.80    1.00
  YS02001904YS02001907 CONDUIT    519.03     0  02:26      0.66    0.18    1.00
  YS02001907YS02006553 CONDUIT    806.11     0  02:43      0.90    0.95    1.00
  YS02001910YS02001907 CONDUIT   1936.26     0  02:25      2.47    1.09    1.00
  YS02001915YS02001910 CONDUIT   1936.21     0  02:25      2.47    0.96    1.00
  YS02001918YS02001915 CONDUIT    645.12     0  02:25      0.82    0.36    1.00
  YS02001920YS02001918 CONDUIT    644.71     0  02:25      0.82    0.62    1.00
  YS02001923YS02001920 CONDUIT    642.22     0  02:25      0.82    0.29    1.00
  YS02001926YS02001923 CONDUIT    640.41     0  02:25      0.93    0.91    1.00
  YS02001929YS02001926 CONDUIT    640.11     0  02:25      1.05    0.30    1.00
  YS02006553YS02006556 CONDUIT    805.73     0  02:43      1.03    0.69    1.00
  YS02006556YS02006558 CONDUIT    808.46     0  02:43      1.03    0.64    1.00
  YS02006558YS02006561 CONDUIT   1167.19     0  02:28      4.13    2.58    1.00
  YS02006561YS02001783 CONDUIT   1167.48     0  02:24      2.32    0.60    1.00
  YS02163301YS02001633 CONDUIT    896.13     0  02:05      1.14    0.84    1.00
  YS02163601YS02164001 CONDUIT   1235.12     0  02:05      1.57    1.09    1.00
  YS02164001YS02001641 CONDUIT   1236.01     0  02:05      1.57    1.69    1.00
  CC-R1                PUMP       683.00     0  00:00              1.00
  CC-R2                PUMP       683.00     0  00:00              1.00
  CC-S1                PUMP       200.00     0  00:00              1.00
  CC-S2                PUMP       200.00     0  00:00              1.00
  JK-R1                PUMP      1000.00     0  00:00              1.00
  JK-R2                PUMP      1000.00     0  00:00              1.00
  JK-S                 PUMP       300.00     0  00:00              1.00
  
  
  ***************************
  Flow Classification Summary
  ***************************
  
  -------------------------------------------------------------------------------------
                      Adjusted    ---------- Fraction of Time in Flow Class ---------- 
                       /Actual         Up    Down  Sub   Sup   Up    Down  Norm  Inlet 
  Conduit               Length    Dry  Dry   Dry   Crit  Crit  Crit  Crit  Ltd   Ctrl  
  -------------------------------------------------------------------------------------
  1                       1.00   0.00  0.00  0.00  0.00  1.00  0.00  0.00  0.40  0.00
  WS02003060WS02003069    1.00   0.00  0.00  0.00  0.97  0.03  0.00  0.00  0.57  0.00
  WS02003066WSF200        1.00   0.13  0.00  0.00  0.00  0.87  0.00  0.00  0.77  0.00
  WS02003067WS02003066    1.00   0.10  0.02  0.00  0.88  0.00  0.00  0.00  0.00  0.00
  WS02003069WS02003072    1.00   0.00  0.00  0.00  0.99  0.01  0.00  0.00  0.64  0.00
  WS02003072WS02003073    1.00   0.00  0.00  0.00  0.00  0.00  0.00  1.00  0.00  0.00
  WS02004401WS02004402    1.00   0.02  0.00  0.00  0.98  0.00  0.00  0.00  0.00  0.00
  WS02004402WS02004403    1.00   0.02  0.00  0.00  0.97  0.00  0.00  0.00  0.00  0.00
  WS02004403WS02004404    1.00   0.00  0.03  0.00  0.97  0.00  0.00  0.00  0.00  0.00
  WS02004404WS02004405    1.00   0.00  0.00  0.00  1.00  0.00  0.00  0.00  0.00  0.00
  WS02004405WS02004406    1.00   0.00  0.00  0.00  1.00  0.00  0.00  0.00  0.00  0.00
  WS02004406WS02004407    1.00   0.00  0.05  0.00  0.95  0.00  0.00  0.00  0.00  0.00
  WS02004407WS02004409    1.00   0.05  0.00  0.00  0.94  0.01  0.00  0.00  0.94  0.00
  WS02004409WS02004410    1.00   0.05  0.00  0.00  0.95  0.00  0.00  0.00  0.03  0.00
  WS02004410WS02004411    1.00   0.05  0.00  0.00  0.95  0.00  0.00  0.00  0.01  0.00
  WS02004411WS02004412    1.00   0.05  0.00  0.00  0.95  0.00  0.00  0.00  0.00  0.00
  WS02004412WS02004413    1.00   0.05  0.00  0.00  0.94  0.00  0.00  0.00  0.01  0.00
  WS02004413WS02003067    1.00   0.06  0.04  0.00  0.00  0.00  0.90  0.00  0.00  0.00
  WS02006109WS02006110    1.00   0.00  0.01  0.00  0.98  0.00  0.01  0.00  0.00  0.00
  WS02006110WS02006113    1.00   0.01  0.01  0.00  0.98  0.00  0.00  0.00  0.00  0.00
  WS02006111WS02006112    1.00   0.02  0.00  0.00  0.98  0.00  0.00  0.00  0.98  0.00
  WS02006112WS02006115    1.00   0.02  0.00  0.00  0.97  0.00  0.00  0.00  0.00  0.00
  WS02006113WS02006111    1.00   0.02  0.00  0.00  0.00  0.98  0.00  0.00  0.18  0.00
  WS02006115WS02006116    1.00   0.02  0.00  0.00  0.97  0.00  0.00  0.01  0.00  0.00
  WS02006116WS02004401    1.00   0.02  0.00  0.00  0.98  0.00  0.00  0.00  0.00  0.00
  WS02006228WS02006109    1.00   0.00  0.00  0.00  1.00  0.00  0.00  0.00  0.00  0.00
  WS02006229WS02006228    1.00   0.00  0.00  0.00  0.99  0.00  0.00  0.01  0.00  0.00
  WS02006230WS02006229    1.00   0.00  0.00  0.00  0.99  0.00  0.00  0.01  0.00  0.00
  WS02006231WS02006230    1.00   0.00  0.00  0.00  0.38  0.00  0.62  0.00  0.00  0.00
  WS02006232WS02006231    1.00   0.00  0.00  0.00  0.99  0.00  0.01  0.00  0.00  0.00
  WS02006234WS02006232    1.00   0.00  0.00  0.00  1.00  0.00  0.00  0.00  0.07  0.00
  WS02006235WS02006234    1.00   0.00  0.00  0.00  0.88  0.00  0.12  0.00  0.00  0.00
  WS02006238WS02006235    1.00   0.00  0.00  0.00  1.00  0.00  0.00  0.00  0.00  0.00
  WS02006239WS02006238    1.00   0.00  0.00  0.00  1.00  0.00  0.00  0.00  0.14  0.00
  WS02006240WS02006239    1.00   0.00  0.00  0.00  0.68  0.00  0.00  0.32  0.01  0.00
  WS02006242WS02006240    1.00   0.00  0.00  0.00  0.99  0.00  0.01  0.00  0.00  0.00
  WS02006243WS02006242    1.00   0.00  0.00  0.00  0.99  0.00  0.00  0.01  0.39  0.00
  WS02006245WS02006243    1.00   0.00  0.00  0.00  0.84  0.00  0.00  0.15  0.01  0.00
  WS02006247WS02006245    1.00   0.00  0.00  0.00  0.97  0.00  0.00  0.03  0.00  0.00
  WS02006248WS02006247    1.00   0.00  0.00  0.00  0.99  0.00  0.00  0.01  0.30  0.00
  WS02006249WS02006248    1.00   0.00  0.00  0.00  0.63  0.00  0.37  0.00  0.00  0.00
  WS02006251WS02006249    1.00   0.00  0.00  0.00  0.99  0.01  0.00  0.00  0.39  0.00
  WS02006252WS02006251    1.00   0.01  0.36  0.00  0.11  0.00  0.52  0.00  0.00  0.00
  WS02006256WS02006235    1.00   0.00  0.00  0.00  1.00  0.00  0.00  0.00  0.00  0.00
  WSF200WS02003060        1.00   0.00  0.13  0.00  0.22  0.66  0.00  0.00  0.35  0.00
  YS02001580YS02001583    1.00   0.25  0.52  0.00  0.23  0.00  0.00  0.00  0.61  0.00
  YS02001583YS02001586    1.00   0.40  0.32  0.00  0.28  0.00  0.00  0.00  0.62  0.00
  YS02001586YS02001590    1.00   0.13  0.00  0.00  0.47  0.04  0.00  0.36  0.37  0.00
  YS02001590YS02001593    1.00   0.13  0.01  0.00  0.16  0.00  0.71  0.00  0.00  0.00
  YS02001593YS02001596    1.00   0.13  0.00  0.00  0.18  0.01  0.00  0.68  0.02  0.00
  YS02001596YS02001600    1.00   0.13  0.00  0.00  0.24  0.01  0.00  0.61  0.04  0.00
  YS02001600YS02001601    1.00   0.13  0.01  0.00  0.86  0.00  0.00  0.00  0.57  0.00
  YS02001601YS02001602    1.00   0.13  0.01  0.00  0.87  0.00  0.00  0.00  0.00  0.00
  YS02001602YS02001605    1.00   0.13  0.00  0.00  0.87  0.00  0.00  0.00  0.00  0.00
  YS02001605YS02001607    1.00   0.13  0.00  0.00  0.87  0.00  0.00  0.00  0.00  0.00
  YS02001607YS02001610    1.00   0.13  0.00  0.00  0.86  0.00  0.00  0.00  0.01  0.00
  YS02001610YS02001613    1.00   0.13  0.00  0.00  0.87  0.00  0.00  0.00  0.00  0.00
  YS02001613YS02001616    1.00   0.13  0.00  0.00  0.87  0.00  0.00  0.00  0.00  0.00
  YS02001616YS02001619    1.00   0.13  0.00  0.00  0.87  0.00  0.00  0.00  0.00  0.00
  YS02001619YS02001622    1.00   0.13  0.00  0.00  0.87  0.00  0.00  0.00  0.26  0.00
  YS02001622YS02001625    1.00   0.13  0.00  0.00  0.87  0.00  0.00  0.00  0.03  0.00
  YS02001625YS02001629    1.00   0.13  0.04  0.00  0.21  0.00  0.62  0.00  0.00  0.00
  YS02001629YS02163301    1.00   0.14  0.01  0.00  0.85  0.00  0.00  0.00  0.00  0.00
  YS02001633YS02163601    1.00   0.00  0.01  0.00  0.99  0.00  0.00  0.00  0.14  0.00
  YS02001641YS02001644    1.00   0.00  0.01  0.00  0.99  0.00  0.00  0.00  0.00  0.00
  YS02001644YS02001647    1.00   0.00  0.16  0.00  0.84  0.00  0.00  0.00  0.00  0.00
  YS02001647YS02001649    1.00   0.00  0.16  0.00  0.62  0.22  0.00  0.00  0.57  0.00
  YS02001649YS02001757    1.00   0.00  0.00  0.00  0.85  0.15  0.00  0.00  0.37  0.00
  YS02001652YS02001649    1.00   0.00  0.00  0.00  0.97  0.03  0.00  0.00  0.67  0.00
  YS02001655YS02001652    1.00   0.00  0.00  0.00  0.25  0.01  0.00  0.73  0.07  0.00
  YS02001658YS02001655    1.00   0.00  0.14  0.00  0.70  0.16  0.00  0.00  0.64  0.00
  YS02001661YS02001658    1.00   0.14  0.00  0.00  0.54  0.32  0.00  0.00  0.64  0.00
  YS02001664YS02001661    1.00   0.13  0.00  0.00  0.79  0.09  0.00  0.00  0.83  0.00
  YS02001745YS02001748    1.00   0.00  0.00  0.00  0.15  0.00  0.00  0.85  0.04  0.00
  YS02001748YS02001751    1.00   0.00  0.00  0.00  0.85  0.15  0.00  0.00  0.71  0.00
  YS02001751YS02001754    1.00   0.00  0.00  0.00  0.22  0.01  0.00  0.77  0.04  0.00
  YS02001754YS02001757    1.00   0.00  0.00  0.00  1.00  0.00  0.00  0.00  0.74  0.00
  YS02001757CaochengTiaoxuchi    1.00   0.00  0.00  0.00  0.98  0.02  0.00  0.00  0.58  0.00
  YS02001759YS02001757    1.00   0.00  0.00  0.00  0.99  0.01  0.00  0.00  0.49  0.00
  YS02001762YS02001759    1.00   0.00  0.00  0.00  1.00  0.00  0.00  0.00  0.04  0.00
  YS02001765YS02001762    1.00   0.00  0.00  0.00  1.00  0.00  0.00  0.00  0.60  0.00
  YS02001767YS02001765    1.00   0.00  0.00  0.00  1.00  0.00  0.00  0.00  0.01  0.00
  YS02001770YS02001767    1.00   0.00  0.00  0.00  1.00  0.00  0.00  0.00  0.00  0.00
  YS02001774YS02001770    1.00   0.00  0.13  0.00  0.71  0.00  0.16  0.00  0.02  0.00
  YS02001779YS02001774    1.00   0.00  0.00  0.00  1.00  0.00  0.00  0.00  0.70  0.00
  YS02001783YS02001784    1.00   0.00  0.17  0.00  0.83  0.00  0.00  0.00  0.54  0.00
  YS02001784YS02001785    1.00   0.00  0.00  0.00  1.00  0.00  0.00  0.00  0.15  0.00
  YS02001786YS02001788    1.00   0.00  0.00  0.00  0.79  0.21  0.00  0.00  0.00  0.00
  YS02001788YS02001790    1.00   0.00  0.00  0.00  0.22  0.78  0.00  0.00  0.78  0.00
  YS02001790YS02001791    1.00   0.00  0.00  0.00  0.01  0.99  0.00  0.00  0.16  0.00
  YS02001791YS02001793    1.00   0.00  0.00  0.00  0.00  1.00  0.00  0.00  0.02  0.00
  YS02001793JiankangQianchi    1.00   0.00  0.00  0.00  0.98  0.02  0.00  0.00  0.93  0.00
  YS02001882YS02001884    1.00   0.14  0.01  0.00  0.85  0.00  0.00  0.00  0.00  0.00
  YS02001884YS02001887    1.00   0.06  0.05  0.00  0.89  0.00  0.00  0.00  0.00  0.00
  YS02001887YS02001890    1.00   0.00  0.00  0.00  0.97  0.00  0.03  0.00  0.00  0.00
  YS02001890YS02001895    1.00   0.00  0.15  0.00  0.85  0.00  0.00  0.00  0.00  0.00
  YS02001895YS02001898    1.00   0.15  0.00  0.00  0.83  0.00  0.02  0.00  0.00  0.00
  YS02001898YS02001901    1.00   0.16  0.00  0.00  0.84  0.00  0.00  0.00  0.01  0.00
  YS02001901YS02001904    1.00   0.16  0.00  0.00  0.84  0.00  0.00  0.00  0.00  0.00
  YS02001904YS02001907    1.00   0.00  0.15  0.00  0.84  0.00  0.00  0.00  0.00  0.00
  YS02001907YS02006553    1.00   0.00  0.02  0.00  0.98  0.00  0.00  0.00  0.00  0.00
  YS02001910YS02001907    1.00   0.00  0.00  0.00  0.97  0.00  0.00  0.03  0.12  0.00
  YS02001915YS02001910    1.00   0.00  0.00  0.00  0.97  0.03  0.00  0.00  0.13  0.00
  YS02001918YS02001915    1.00   0.00  0.01  0.00  0.98  0.02  0.00  0.00  0.70  0.00
  YS02001920YS02001918    1.00   0.00  0.01  0.00  0.99  0.00  0.00  0.00  0.00  0.00
  YS02001923YS02001920    1.00   0.00  0.00  0.00  1.00  0.00  0.00  0.00  0.89  0.00
  YS02001926YS02001923    1.00   0.00  0.07  0.00  0.08  0.00  0.84  0.00  0.00  0.00
  YS02001929YS02001926    1.00   0.00  0.13  0.00  0.87  0.00  0.00  0.00  0.80  0.00
  YS02006553YS02006556    1.00   0.01  0.00  0.00  0.99  0.00  0.00  0.00  0.03  0.00
  YS02006556YS02006558    1.00   0.00  0.00  0.00  1.00  0.00  0.00  0.00  0.00  0.00
  YS02006558YS02006561    1.00   0.17  0.00  0.00  0.08  0.76  0.00  0.00  0.17  0.00
  YS02006561YS02001783    1.00   0.17  0.00  0.00  0.12  0.71  0.00  0.00  0.65  0.00
  YS02163301YS02001633    1.00   0.00  0.14  0.00  0.86  0.00  0.00  0.00  0.00  0.00
  YS02163601YS02164001    1.00   0.00  0.08  0.00  0.92  0.00  0.00  0.00  0.00  0.00
  YS02164001YS02001641    1.00   0.01  0.07  0.00  0.92  0.00  0.00  0.00  0.05  0.00
  
  
  *************************
  Conduit Surcharge Summary
  *************************
  
  ----------------------------------------------------------------------------
                                                           Hours        Hours 
                         --------- Hours Full --------   Above Full   Capacity
  Conduit                Both Ends  Upstream  Dnstream   Normal Flow   Limited
  ----------------------------------------------------------------------------
  WS02003072WS02003073        0.01      0.01      0.01      1.21         0.01
  WS02004404WS02004405        0.01      0.01      0.01      4.52         0.01
  WS02004405WS02004406        0.01      0.01      0.01      0.60         0.01
  WS02006109WS02006110        0.65      0.65      2.64      0.78         0.01
  WS02006110WS02006113        0.01      0.01      2.53      0.01         0.01
  WS02006111WS02006112        0.01      0.01      3.44      0.01         0.01
  WS02006112WS02006115        0.01      0.01      0.69      0.01         0.01
  WS02006228WS02006109        2.43      2.64      2.43      3.85         2.43
  WS02006229WS02006228        2.42      2.47      2.42      3.31         2.41
  WS02006230WS02006229        2.88      3.19      2.88      4.97         2.88
  WS02006231WS02006230        0.67      0.67      0.86      4.71         0.01
  WS02006232WS02006231        0.81      0.81      2.64      0.88         0.01
  WS02006234WS02006232        2.32      2.32      2.64      0.87         0.85
  WS02006235WS02006234        1.14      1.15      2.41      4.59         0.02
  WS02006238WS02006235        2.46      2.47      2.69      0.01         0.01
  WS02006239WS02006238        2.49      2.58      2.53      3.06         2.29
  WS02006240WS02006239        2.42      2.47      2.42      3.04         2.15
  WS02006242WS02006240        2.45      2.45      2.82      3.35         0.01
  WS02006243WS02006242        2.50      2.50      2.69      0.01         0.05
  WS02006245WS02006243        2.48      2.50      2.48      2.36         1.85
  WS02006247WS02006245        2.48      2.56      2.48      4.41         2.47
  WS02006248WS02006247        2.48      2.48      2.53      0.01         0.05
  WS02006249WS02006248        2.46      2.46      2.51      4.40         0.01
  WS02006251WS02006249        2.51      2.53      2.51      3.13         2.42
  WS02006252WS02006251        3.19      3.19      3.21      3.20         0.01
  WS02006256WS02006235        4.61      4.65      6.96      1.09         0.01
  YS02001580YS02001583        0.88      0.88      0.96      0.01         0.01
  YS02001583YS02001586        0.89      0.89      1.03      0.01         0.01
  YS02001586YS02001590        1.04      1.04      1.11      0.01         0.01
  YS02001590YS02001593        1.11      1.11      1.14      1.10         0.01
  YS02001593YS02001596        1.12      1.12      1.24      0.01         0.01
  YS02001596YS02001600        1.30      1.30      1.42      0.01         0.01
  YS02001600YS02001601        1.48      1.48      1.78      0.01         0.01
  YS02001601YS02001602        1.67      1.67      1.81      1.42         0.01
  YS02001602YS02001605        1.61      1.61      1.67      2.58         0.01
  YS02001605YS02001607        1.57      1.61      1.58      1.70         1.53
  YS02001607YS02001610        1.11      1.11      1.13      0.01         0.01
  YS02001610YS02001613        1.10      1.10      1.13      0.01         0.01
  YS02001613YS02001616        1.06      1.06      1.10      0.01         0.01
  YS02001616YS02001619        1.05      1.05      1.06      0.10         0.10
  YS02001619YS02001622        1.05      1.05      1.05      1.08         0.96
  YS02001622YS02001625        1.05      1.05      1.24      0.01         0.01
  YS02001625YS02001629        0.98      0.98      1.24      0.01         0.01
  YS02001629YS02163301        1.24      1.24      1.25      0.11         0.13
  YS02001633YS02163601        1.28      1.28      1.33      0.21         0.23
  YS02001641YS02001644        1.18      1.22      1.18      1.86         1.15
  YS02001644YS02001647        0.97      0.97      1.18      0.01         0.01
  YS02001647YS02001649        0.97      0.97      1.09      0.01         0.01
  YS02001649YS02001757        1.09      1.09      1.17      0.06         0.05
  YS02001652YS02001649        0.94      0.94      1.09      0.01         0.01
  YS02001655YS02001652        0.78      0.78      0.93      0.01         0.01
  YS02001658YS02001655        0.45      0.45      0.78      0.01         0.01
  YS02001661YS02001658        0.13      0.13      0.45      0.01         0.01
  YS02001664YS02001661        0.01      0.01      0.20      0.01         0.01
  YS02001745YS02001748        0.01      0.01      0.36      0.01         0.01
  YS02001748YS02001751        0.41      0.41      0.63      0.01         0.01
  YS02001751YS02001754        0.63      0.63      0.88      0.01         0.01
  YS02001754YS02001757        0.91      0.91      1.17      0.01         0.01
  YS02001757CaochengTiaoxuchi        1.17      1.17      2.26      0.49         0.49
  YS02001759YS02001757        1.08      1.08      1.17      0.01         0.01
  YS02001762YS02001759        1.06      1.06      1.08      0.01         0.01
  YS02001765YS02001762        1.02      1.02      1.06      0.01         0.01
  YS02001767YS02001765        0.99      0.99      1.02      0.01         0.01
  YS02001770YS02001767        0.99      0.99      0.99      0.68         0.60
  YS02001774YS02001770        0.96      0.96      1.04      0.01         0.01
  YS02001779YS02001774        0.87      0.87      1.04      0.01         0.01
  YS02001783YS02001784        0.72      0.75      0.72      0.96         0.72
  YS02001784YS02001785        0.58      0.72      0.58      1.27         0.58
  YS02001786YS02001788        0.01      0.58      0.01      1.13         0.01
  YS02001790YS02001791        0.01      0.01      0.01      0.70         0.01
  YS02001793JiankangQianchi        0.01      0.01      7.70      0.01         0.01
  YS02001882YS02001884        0.68      0.68      0.69      0.01         0.01
  YS02001884YS02001887        0.72      0.72      0.73      0.01         0.01
  YS02001887YS02001890        0.75      0.75      0.77      0.20         0.01
  YS02001890YS02001895        0.66      0.66      0.79      0.01         0.01
  YS02001895YS02001898        0.65      0.65      0.66      0.01         0.01
  YS02001898YS02001901        0.67      0.67      0.72      0.01         0.01
  YS02001901YS02001904        0.71      0.71      0.72      0.01         0.01
  YS02001904YS02001907        0.71      0.71      1.10      0.01         0.01
  YS02001907YS02006553        1.29      1.29      1.36      0.01         0.01
  YS02001910YS02001907        0.79      0.79      1.08      0.06         0.06
  YS02001915YS02001910        0.67      0.67      0.79      0.01         0.01
  YS02001918YS02001915        0.57      0.57      0.67      0.01         0.01
  YS02001920YS02001918        0.57      0.57      0.59      0.01         0.01
  YS02001923YS02001920        0.52      0.52      0.59      0.01         0.01
  YS02001926YS02001923        0.20      0.20      0.24      0.01         0.01
  YS02001929YS02001926        0.08      0.08      0.24      0.01         0.01
  YS02006553YS02006556        0.91      0.91      1.11      0.01         0.01
  YS02006556YS02006558        1.01      1.01      1.13      0.01         0.01
  YS02006558YS02006561        0.61      0.89      0.61      1.22         0.61
  YS02006561YS02001783        0.53      0.53      0.75      0.01         0.01
  YS02163301YS02001633        1.25      1.25      1.30      0.01         0.01
  YS02163601YS02164001        1.22      1.22      1.33      0.11         0.01
  YS02164001YS02001641        1.21      1.22      1.22      0.73         0.65
  
  
  ***************
  Pumping Summary
  ***************
  
  ---------------------------------------------------------------------------------------------------------
                                                  Min       Avg       Max     Total     Power    % Time Off
                        Percent   Number of      Flow      Flow      Flow    Volume     Usage    Pump Curve
  Pump                 Utilized   Start-Ups       LPS       LPS       LPS  10^6 ltr     Kw-hr    Low   High
  ---------------------------------------------------------------------------------------------------------
  CC-R1                   21.79           4      0.00    683.00    683.00     4.286     82.58    0.0    8.8
  CC-R2                   18.13           2      0.00    683.00    683.00     3.566     69.31    0.0   10.3
  CC-S1                   51.60          12      0.00    200.00    200.00     2.972     17.18    0.0    0.0
  CC-S2                   44.59          17      0.00    200.00    200.00     2.568     14.81    0.0    0.0
  JK-R1                    8.66          15      0.00   1000.00   1000.00     2.495     26.91    0.0    0.0
  JK-R2                    4.75          10      0.00   1000.00   1000.00     1.369     13.62    0.0    0.0
  JK-S                    13.68          16      0.00    300.00    300.00     1.182     18.47    0.0    0.0
  

  Analysis begun on:  Wed Jan 15 10:41:29 2025
  Analysis ended on:  Wed Jan 15 10:41:31 2025
  Total elapsed time: 00:00:02