
  EPA STORM WATER MANAGEMENT MODEL - VERSION 5.2 (Build 5.2.4)
  PYSWMM TOOLKIT API - VERSION v1.0 (2023-11-27)
  ------------------------------------------------------------

  WARNING 04: minimum elevation drop used for Conduit WS02004404WS02004405
  WARNING 03: negative offset ignored for Link YS02001904YS02001907
  
  ****************
  Analysis Options
  ****************
  Flow Units ............... LPS
  Process Models:
    Rainfall/Runoff ........ YES
    RDII ................... NO
    Snowmelt ............... NO
    Groundwater ............ NO
    Flow Routing ........... YES
    Ponding Allowed ........ NO
    Water Quality .......... NO
  Infiltration Method ...... HORTON
  Flow Routing Method ...... DYNWAVE
  Surcharge Method ......... EXTRAN
  Starting Date ............ 08/28/2015 08:00:00
  Ending Date .............. 08/28/2015 16:00:00
  Antecedent Dry Days ...... 8.0
  Report Time Step ......... 00:01:00
  Wet Time Step ............ 00:01:00
  Dry Time Step ............ 00:01:00
  Routing Time Step ........ 30.00 sec
  Variable Time Step ....... YES
  Maximum Trials ........... 8
  Number of Threads ........ 4
  Head Tolerance ........... 0.001500 m
  
  
  **************************        Volume         Depth
  Runoff Quantity Continuity     hectare-m            mm
  **************************     ---------       -------
  Total Precipitation ......         1.931        58.212
  Evaporation Loss .........         0.000         0.000
  Infiltration Loss ........         0.097         2.920
  Surface Runoff ...........         1.802        54.313
  Final Storage ............         0.033         0.994
  Continuity Error (%) .....        -0.024
  
  
  **************************        Volume        Volume
  Flow Routing Continuity        hectare-m      10^6 ltr
  **************************     ---------     ---------
  Dry Weather Inflow .......         0.025         0.251
  Wet Weather Inflow .......         1.802        18.017
  Groundwater Inflow .......         0.000         0.000
  RDII Inflow ..............         0.000         0.000
  External Inflow ..........         0.083         0.834
  External Outflow .........         1.443        14.427
  Flooding Loss ............         0.520         5.202
  Evaporation Loss .........         0.000         0.000
  Exfiltration Loss ........         0.000         0.000
  Initial Stored Volume ....         0.243         2.431
  Final Stored Volume ......         0.196         1.964
  Continuity Error (%) .....        -0.286
  
  
  *************************
  Highest Continuity Errors
  *************************
  Node YS02001583 (-6.07%)
  Node YS02001884 (5.13%)
  
  
  ***************************
  Time-Step Critical Elements
  ***************************
  Link WS02006252WS02006251 (36.39%)
  Link WS02006238WS02006235 (24.85%)
  Link WS02004404WS02004405 (12.96%)
  Link WS02006235WS02006234 (7.74%)
  Link YS02001791YS02001793 (5.19%)
  
  
  ********************************
  Highest Flow Instability Indexes
  ********************************
  Link WS02006113WS02006111 (53)
  Link WS02006111WS02006112 (25)
  Link WS02004404WS02004405 (22)
  Link WS02004403WS02004404 (20)
  Link WS02004405WS02004406 (18)
  
  
  *********************************
  Most Frequent Nonconverging Nodes
  *********************************
  Node CC-1 (10.20%)
  Node CC-2 (10.20%)
  Node JK-1 (10.20%)
  Node JK-2 (10.20%)
  Node WSC (10.20%)
  
  
  *************************
  Routing Time Step Summary
  *************************
  Minimum Time Step           :     0.01 sec
  Average Time Step           :     2.03 sec
  Maximum Time Step           :     7.04 sec
  % of Time in Steady State   :     0.00
  Average Iterations per Step :     3.02
  % of Steps Not Converging   :    10.20
  Time Step Frequencies       :
     30.000 - 13.228 sec      :     0.00 %
     13.228 -  5.833 sec      :     8.17 %
      5.833 -  2.572 sec      :    19.95 %
      2.572 -  1.134 sec      :    26.78 %
      1.134 -  0.500 sec      :    45.10 %
  
  
  ***************************
  Subcatchment Runoff Summary
  ***************************
  
  ------------------------------------------------------------------------------------------------------------------------------
                            Total      Total      Total      Total     Imperv       Perv      Total       Total     Peak  Runoff
                           Precip      Runon       Evap      Infil     Runoff     Runoff     Runoff      Runoff   Runoff   Coeff
  Subcatchment                 mm         mm         mm         mm         mm         mm         mm    10^6 ltr      LPS
  ------------------------------------------------------------------------------------------------------------------------------
  sub60                     58.21       0.00       0.00       1.76      50.02       5.23      55.26        0.73   527.90   0.949
  sub61                     58.21       0.00       0.00       2.55      47.19       7.35      54.54        1.00   731.10   0.937
  sub62                     58.21       0.00       0.00       1.17      52.27       3.49      55.76        1.53  1025.55   0.958
  sub63                     58.21       0.00       0.00       4.70      40.36      12.19      52.55        1.19   812.95   0.903
  sub64                     58.21       0.00       0.00       2.37      48.28       6.36      54.64        1.31   826.08   0.939
  sub65                     58.21       0.00       0.00       2.05      49.39       5.51      54.91        1.51   923.58   0.943
  sub66                     58.21       0.00       0.00       5.82      40.26      11.06      51.32        2.39  1186.70   0.882
  sub67                     58.21       0.00       0.00       1.13      52.31       3.53      55.84        1.04   796.17   0.959
  sub68                     58.21       0.00       0.00       2.11      48.88       6.04      54.92        1.51  1053.43   0.943
  sub69                     58.21       0.00       0.00       1.86      49.37       6.87      56.24        2.08  1230.84   0.966
  sub70                     58.21       0.00       0.00       6.25      38.26      13.54      51.80        1.50   665.94   0.890
  sub71                     58.21       0.00       0.00       1.20      52.23       3.46      55.69        1.46   895.98   0.957
  sub72                     58.21       0.00       0.00       1.07      52.74       3.01      55.75        0.77   430.63   0.958
  
  
  ******************
  Node Depth Summary
  ******************
  
  ---------------------------------------------------------------------------------
                                 Average  Maximum  Maximum  Time of Max    Reported
                                   Depth    Depth      HGL   Occurrence   Max Depth
  Node                 Type       Meters   Meters   Meters  days hr:min      Meters
  ---------------------------------------------------------------------------------
  WS02003060           JUNCTION     0.25     0.38     5.32     0  02:23        0.38
  WS02003066           JUNCTION     0.20     0.30     5.85     0  02:22        0.30
  WS02003067           JUNCTION     0.52     0.70     6.02     0  02:22        0.70
  WS02003069           JUNCTION     0.28     0.43     5.02     0  02:23        0.43
  WS02003072           JUNCTION     0.34     0.50     4.87     0  02:24        0.50
  WS02003073           JUNCTION     0.20     0.30     4.36     0  02:24        0.30
  WS02004401           JUNCTION     0.62     0.88     6.88     0  02:18        0.88
  WS02004402           JUNCTION     0.65     0.91     6.87     0  02:20        0.90
  WS02004403           JUNCTION     0.68     0.92     6.85     0  02:20        0.92
  WS02004404           JUNCTION     0.75     1.03     6.88     0  02:20        1.00
  WS02004405           JUNCTION     0.74     0.97     6.82     0  02:21        0.97
  WS02004406           JUNCTION     0.75     0.96     6.79     0  02:21        0.96
  WS02004407           JUNCTION     0.19     0.30     6.61     0  02:21        0.30
  WS02004409           JUNCTION     0.42     0.67     6.44     0  02:21        0.67
  WS02004410           JUNCTION     0.44     0.68     6.40     0  02:21        0.68
  WS02004411           JUNCTION     0.46     0.69     6.37     0  02:22        0.69
  WS02004412           JUNCTION     0.48     0.70     6.34     0  02:22        0.70
  WS02004413           JUNCTION     0.64     0.86     6.33     0  02:22        0.86
  WS02006109           JUNCTION     0.68     1.60     8.22     0  02:56        1.60
  WS02006110           JUNCTION     0.68     1.66     8.25     0  02:56        1.66
  WS02006111           JUNCTION     0.19     0.29     6.99     0  02:58        0.29
  WS02006112           JUNCTION     0.78     1.10     6.98     0  02:33        1.08
  WS02006113           JUNCTION     0.29     0.46     7.35     0  02:47        0.46
  WS02006115           JUNCTION     0.51     0.78     6.92     0  02:20        0.77
  WS02006116           JUNCTION     0.59     0.86     6.90     0  02:19        0.86
  WS02006228           JUNCTION     0.67     1.55     8.20     0  02:55        1.43
  WS02006229           JUNCTION     0.64     1.62     8.31     0  02:55        1.29
  WS02006230           JUNCTION     0.64     2.00     8.75     0  02:55        1.15
  WS02006231           JUNCTION     0.44     1.53     8.65     0  02:55        0.90
  WS02006232           JUNCTION     0.58     1.60     8.64     0  02:55        1.11
  WS02006234           JUNCTION     0.50     1.49     8.65     0  02:55        1.18
  WS02006235           JUNCTION     0.54     1.52     8.69     0  02:55        1.32
  WS02006238           JUNCTION     0.57     1.55     8.69     0  02:55        1.44
  WS02006239           JUNCTION     0.54     1.61     8.82     0  03:06        1.61
  WS02006240           JUNCTION     0.51     1.65     8.94     0  03:06        1.65
  WS02006242           JUNCTION     0.59     1.55     8.82     0  03:06        1.55
  WS02006243           JUNCTION     0.50     1.48     8.90     0  03:06        1.48
  WS02006245           JUNCTION     0.50     1.48     8.96     0  03:06        1.48
  WS02006247           JUNCTION     0.52     1.37     8.87     0  03:06        1.37
  WS02006248           JUNCTION     0.48     1.10     8.69     0  02:05        1.10
  WS02006249           JUNCTION     0.51     1.09     8.69     0  02:00        1.09
  WS02006251           JUNCTION     0.51     1.36     9.03     0  02:00        1.27
  WS02006252           JUNCTION     0.37     1.50     9.74     0  00:00        0.83
  WS02006256           JUNCTION     0.93     2.35     9.28     0  00:00        2.35
  WSF200               JUNCTION     0.18     0.29     5.52     0  02:22        0.29
  YS02001580           JUNCTION     0.07     1.05     9.59     0  01:55        0.77
  YS02001583           JUNCTION     0.11     1.14     9.64     0  01:55        0.82
  YS02001586           JUNCTION     0.17     1.13     9.30     0  01:55        1.13
  YS02001590           JUNCTION     0.26     1.40     9.26     0  01:53        1.37
  YS02001593           JUNCTION     0.20     1.34     9.20     0  01:53        1.29
  YS02001596           JUNCTION     0.27     1.69     9.10     0  01:55        1.67
  YS02001600           JUNCTION     0.32     1.87     9.00     0  01:55        1.86
  YS02001601           JUNCTION     0.51     2.06     8.90     0  01:53        2.06
  YS02001602           JUNCTION     0.43     1.87     8.77     0  01:55        1.87
  YS02001605           JUNCTION     0.40     1.78     8.68     0  01:55        1.78
  YS02001607           JUNCTION     0.40     1.68     8.53     0  01:55        1.65
  YS02001610           JUNCTION     0.44     1.68     8.48     0  01:55        1.68
  YS02001613           JUNCTION     0.40     1.70     8.54     0  01:55        1.65
  YS02001616           JUNCTION     0.33     1.61     8.52     0  01:55        1.61
  YS02001619           JUNCTION     0.31     1.61     8.54     0  01:55        1.61
  YS02001622           JUNCTION     0.29     1.62     8.52     0  01:55        1.58
  YS02001625           JUNCTION     0.56     1.78     8.38     0  01:55        1.78
  YS02001629           JUNCTION     0.41     1.85     8.40     0  01:55        1.85
  YS02001633           JUNCTION     0.49     2.07     8.53     0  01:59        2.02
  YS02001641           JUNCTION     0.47     1.99     8.43     0  01:59        1.94
  YS02001644           JUNCTION     0.47     1.92     8.35     0  01:59        1.92
  YS02001647           JUNCTION     0.26     1.81     8.42     0  01:59        1.76
  YS02001649           JUNCTION     0.30     2.02     8.41     0  01:59        1.98
  YS02001652           JUNCTION     0.20     1.93     8.53     0  01:59        1.80
  YS02001655           JUNCTION     0.15     1.95     8.80     0  01:59        1.59
  YS02001658           JUNCTION     0.11     1.95     9.09     0  01:59        1.33
  YS02001661           JUNCTION     0.14     1.37     8.77     0  01:59        1.12
  YS02001664           JUNCTION     0.05     0.79     8.72     0  02:00        0.58
  YS02001745           JUNCTION     0.06     1.42     8.94     0  02:00        1.22
  YS02001748           JUNCTION     0.10     1.77     8.85     0  01:59        1.48
  YS02001751           JUNCTION     0.13     2.20     9.08     0  01:59        1.57
  YS02001754           JUNCTION     0.17     1.99     8.60     0  01:59        1.76
  YS02001757           JUNCTION     0.33     2.10     8.36     0  02:00        2.03
  YS02001759           JUNCTION     0.27     2.08     8.44     0  02:00        2.04
  YS02001762           JUNCTION     0.26     2.06     8.46     0  02:00        2.02
  YS02001765           JUNCTION     0.24     2.01     8.46     0  02:00        1.98
  YS02001767           JUNCTION     0.24     1.97     8.45     0  02:00        1.94
  YS02001770           JUNCTION     0.25     1.95     8.44     0  01:59        1.95
  YS02001774           JUNCTION     0.31     2.01     8.43     0  01:59        1.99
  YS02001779           JUNCTION     0.16     1.68     8.37     0  01:58        1.68
  YS02001783           JUNCTION     0.21     1.31     7.45     0  01:58        1.31
  YS02001784           JUNCTION     0.23     1.19     7.26     0  01:58        1.19
  YS02001786           JUNCTION     0.19     0.92     6.95     0  01:58        0.92
  YS02001788           JUNCTION     0.14     0.62     6.60     0  02:00        0.62
  YS02001790           JUNCTION     0.16     0.73     6.37     0  02:00        0.72
  YS02001791           JUNCTION     0.10     0.44     5.91     0  02:03        0.44
  YS02001793           JUNCTION     0.05     0.30     5.13     0  02:01        0.29
  YS02001882           JUNCTION     0.27     1.74     8.45     0  01:58        1.74
  YS02001884           JUNCTION     0.37     1.83     8.45     0  01:59        1.83
  YS02001887           JUNCTION     0.44     1.93     8.47     0  01:59        1.93
  YS02001890           JUNCTION     0.47     1.81     8.32     0  01:57        1.81
  YS02001895           JUNCTION     0.24     1.58     8.33     0  01:58        1.58
  YS02001898           JUNCTION     0.25     1.59     8.33     0  01:58        1.59
  YS02001901           JUNCTION     0.37     1.70     8.31     0  01:58        1.70
  YS02001904           JUNCTION     0.35     1.65     8.28     0  01:59        1.65
  YS02001907           JUNCTION     0.67     1.96     8.25     0  01:57        1.96
  YS02001910           JUNCTION     0.47     1.98     8.49     0  01:58        1.88
  YS02001915           JUNCTION     0.27     1.93     8.65     0  01:58        1.76
  YS02001918           JUNCTION     0.14     1.81     8.88     0  01:58        1.44
  YS02001920           JUNCTION     0.22     2.14     9.15     0  01:58        1.51
  YS02001923           JUNCTION     0.11     2.03     9.29     0  01:58        1.33
  YS02001926           JUNCTION     0.14     1.90     9.35     0  01:58        1.20
  YS02001929           JUNCTION     0.08     1.78     9.47     0  01:58        1.00
  YS02006553           JUNCTION     0.67     2.01     8.30     0  01:59        2.01
  YS02006556           JUNCTION     0.65     1.99     8.30     0  01:58        1.99
  YS02006558           JUNCTION     0.69     2.07     8.34     0  01:59        2.07
  YS02006561           JUNCTION     0.13     0.97     7.63     0  01:58        0.97
  YS02163301           JUNCTION     0.43     1.94     8.46     0  01:59        1.91
  YS02163601           JUNCTION     0.53     2.08     8.48     0  01:59        2.01
  YS02164001           JUNCTION     0.46     2.01     8.47     0  01:59        1.94
  CC-1                 OUTFALL      0.00     0.00     0.00     0  00:00        0.00
  CC-2                 OUTFALL      0.00     0.00     0.00     0  00:00        0.00
  JK-1                 OUTFALL      0.00     0.00     0.00     0  00:00        0.00
  JK-2                 OUTFALL      0.00     0.00     0.00     0  00:00        0.00
  WSC                  OUTFALL      0.19     0.30     0.97     0  02:25        0.30
  CC-storage           STORAGE      0.85     1.63     7.13     0  02:28        1.63
  JK-storage           STORAGE      2.91     4.23     5.03     0  02:16        4.20
  
  
  *******************
  Node Inflow Summary
  *******************
  
  -------------------------------------------------------------------------------------------------
                                  Maximum  Maximum                  Lateral       Total        Flow
                                  Lateral    Total  Time of Max      Inflow      Inflow     Balance
                                   Inflow   Inflow   Occurrence      Volume      Volume       Error
  Node                 Type           LPS      LPS  days hr:min    10^6 ltr    10^6 ltr     Percent
  -------------------------------------------------------------------------------------------------
  WS02003060           JUNCTION     16.53   555.65     0  02:22       0.476        6.11       0.040
  WS02003066           JUNCTION      0.00   538.70     0  02:22           0        5.64       0.025
  WS02003067           JUNCTION      0.00   538.73     0  02:22           0        5.64       0.076
  WS02003069           JUNCTION      0.32   555.71     0  02:23     0.00922        6.12       0.068
  WS02003072           JUNCTION      0.00   555.40     0  02:24           0        6.12       0.119
  WS02003073           JUNCTION      1.82   556.91     0  02:24      0.0524        6.16       0.101
  WS02004401           JUNCTION      0.00   539.33     0  02:17           0        5.74       0.179
  WS02004402           JUNCTION      0.00   540.10     0  02:17           0        5.73       0.182
  WS02004403           JUNCTION      0.00   541.63     0  02:17           0        5.72       0.176
  WS02004404           JUNCTION      0.16   559.78     0  02:15     0.00467        5.72       0.147
  WS02004405           JUNCTION      0.04   609.02     0  02:19      0.0011        5.71       0.173
  WS02004406           JUNCTION      0.00   548.57     0  02:21           0         5.7       0.365
  WS02004407           JUNCTION      0.00   541.37     0  02:21           0        5.68       0.021
  WS02004409           JUNCTION      0.00   540.54     0  02:21           0        5.68       0.050
  WS02004410           JUNCTION      0.00   539.83     0  02:21           0        5.67       0.079
  WS02004411           JUNCTION      0.00   539.54     0  02:22           0        5.67       0.101
  WS02004412           JUNCTION      0.00   539.22     0  02:22           0        5.66       0.135
  WS02004413           JUNCTION      0.00   539.04     0  02:22           0        5.66       0.238
  WS02006109           JUNCTION      1.23   563.27     0  02:55      0.0354        5.79       0.146
  WS02006110           JUNCTION      0.00   563.45     0  02:55           0        5.78       0.115
  WS02006111           JUNCTION      0.00   563.06     0  02:47           0        5.77       0.013
  WS02006112           JUNCTION      0.00   544.14     0  02:58           0        5.77       0.306
  WS02006113           JUNCTION      0.00   573.90     0  02:56           0        5.78       0.032
  WS02006115           JUNCTION      0.00   550.61     0  02:35           0        5.76       0.115
  WS02006116           JUNCTION      0.00   540.02     0  02:19           0        5.75       0.102
  WS02006228           JUNCTION      0.00   562.31     0  02:55           0        5.76       0.065
  WS02006229           JUNCTION      0.00   562.06     0  02:55           0        5.76       0.078
  WS02006230           JUNCTION     10.28   588.44     0  02:05       0.296        5.77       0.059
  WS02006231           JUNCTION      0.00   573.61     0  02:25           0        5.47       0.034
  WS02006232           JUNCTION      0.00   572.89     0  02:25           0        5.48       0.161
  WS02006234           JUNCTION      0.00   568.19     0  02:25           0        5.47      -0.137
  WS02006235           JUNCTION      0.00   561.95     0  02:25           0        5.51       0.175
  WS02006238           JUNCTION      0.00   424.02     0  02:20           0        4.82      -0.254
  WS02006239           JUNCTION      0.00   422.87     0  02:50           0        4.79      -0.210
  WS02006240           JUNCTION      0.00   420.36     0  02:50           0        4.78      -0.005
  WS02006242           JUNCTION      0.00   421.12     0  02:50           0        4.77       0.022
  WS02006243           JUNCTION      0.00   420.56     0  02:20           0        4.75      -0.261
  WS02006245           JUNCTION      0.00   420.20     0  02:20           0        4.77       0.337
  WS02006247           JUNCTION      0.00   419.98     0  02:20           0        4.77      -0.007
  WS02006248           JUNCTION      0.00   420.76     0  02:20           0        4.76      -0.100
  WS02006249           JUNCTION      0.00   476.88     0  01:35           0        4.95       0.374
  WS02006251           JUNCTION      0.08   406.60     0  02:00     0.00222        4.95       0.015
  WS02006252           JUNCTION      0.00   400.00     0  00:00           0        4.93      -0.290
  WS02006256           JUNCTION      0.00   300.00     0  00:00           0        1.01      -0.772
  WSF200               JUNCTION      0.00   538.70     0  02:23           0        5.64       0.009
  YS02001580           JUNCTION      0.00   120.40     0  01:55           0     0.00449       1.225
  YS02001583           JUNCTION      0.00   199.29     0  01:55           0      0.0154      -5.722
  YS02001586           JUNCTION    665.94   665.97     0  02:04         1.5        1.51       0.092
  YS02001590           JUNCTION      0.00   318.12     0  02:08           0        1.21      -0.040
  YS02001593           JUNCTION      0.00   318.13     0  02:08           0        1.22       0.003
  YS02001596           JUNCTION      0.00   318.21     0  02:11           0        1.22      -0.013
  YS02001600           JUNCTION      0.00   318.04     0  02:03           0        1.22       0.014
  YS02001601           JUNCTION   1230.84  1548.39     0  02:03        2.08         3.3       0.021
  YS02001602           JUNCTION      0.00   533.58     0  01:55           0        2.09       0.021
  YS02001605           JUNCTION      0.00   533.32     0  01:55           0        1.98       0.030
  YS02001607           JUNCTION      0.00   532.86     0  01:55           0        1.98       0.096
  YS02001610           JUNCTION      0.00   628.89     0  02:04           0        2.13       0.102
  YS02001613           JUNCTION      0.00   549.42     0  01:55           0        1.72       0.099
  YS02001616           JUNCTION      0.00   550.88     0  01:54           0        1.72       0.027
  YS02001619           JUNCTION   1186.70  1186.70     0  02:04        2.39        3.97       0.002
  YS02001622           JUNCTION      0.00   933.12     0  02:01           0        3.82       0.003
  YS02001625           JUNCTION      0.00  1247.39     0  02:04           0        3.96       0.219
  YS02001629           JUNCTION      0.00   938.90     0  01:55           0        3.16       0.024
  YS02001633           JUNCTION    923.78  1397.95     0  01:57        1.52        4.49       0.077
  YS02001641           JUNCTION      0.00  1391.39     0  01:57           0        4.31       0.064
  YS02001644           JUNCTION    826.12  1818.46     0  01:57        1.31        5.62       0.058
  YS02001647           JUNCTION      0.00  1820.58     0  01:57           0        5.33       0.008
  YS02001649           JUNCTION      0.00  2069.21     0  01:58           0        6.53      -0.001
  YS02001652           JUNCTION      0.00   927.91     0  02:01           0         1.2      -0.104
  YS02001655           JUNCTION      0.15   925.73     0  02:01     0.00443         1.2       0.044
  YS02001658           JUNCTION      0.00   925.50     0  02:01           0        1.19      -0.001
  YS02001661           JUNCTION      0.00   922.57     0  02:01           0        1.19       0.001
  YS02001664           JUNCTION    812.95   812.95     0  02:02        1.19        1.19      -0.014
  YS02001745           JUNCTION    527.90   527.90     0  02:02       0.726       0.727       0.204
  YS02001748           JUNCTION      0.04   601.39     0  02:00      0.0013       0.728      -0.382
  YS02001751           JUNCTION      0.01   603.32     0  02:00    0.000317       0.736       0.060
  YS02001754           JUNCTION      0.26   603.83     0  02:00     0.00749       0.749      -0.182
  YS02001757           JUNCTION      0.00  3471.14     0  02:00           0        9.69       0.042
  YS02001759           JUNCTION    731.14  1439.63     0  01:59           1        2.42      -0.013
  YS02001762           JUNCTION      0.00   819.20     0  01:59           0        1.42       0.006
  YS02001765           JUNCTION      0.00   815.80     0  01:59           0        1.42       0.008
  YS02001767           JUNCTION      0.54   815.94     0  01:59      0.0154        1.42      -0.007
  YS02001770           JUNCTION   1025.70  1025.70     0  02:02        1.53        1.58      -0.022
  YS02001774           JUNCTION      0.00   415.44     0  01:58           0       0.192       0.516
  YS02001779           JUNCTION      0.01   421.68     0  01:58    0.000144       0.147      -0.423
  YS02001783           JUNCTION      0.00  1164.31     0  02:00           0        3.68       0.005
  YS02001784           JUNCTION      1.06  1165.54     0  02:00      0.0305        3.71       0.014
  YS02001786           JUNCTION      0.06  1165.60     0  02:00     0.00162        3.71       0.018
  YS02001788           JUNCTION      0.07  1166.14     0  02:00     0.00204        3.71       0.009
  YS02001790           JUNCTION      0.15  1180.15     0  02:01     0.00446        3.72       0.020
  YS02001791           JUNCTION      0.00  1292.09     0  02:00           0        3.71      -0.024
  YS02001793           JUNCTION      0.00  1261.82     0  02:01           0        3.72       0.005
  YS02001882           JUNCTION      0.00    49.09     0  01:56           0      0.0127       5.571
  YS02001884           JUNCTION      0.00    77.29     0  01:56           0      0.0483       5.404
  YS02001887           JUNCTION    796.62   797.94     0  02:01        1.05        1.08       0.413
  YS02001890           JUNCTION      0.00   798.27     0  02:01           0        1.04       0.495
  YS02001895           JUNCTION      0.00   517.31     0  02:06           0       0.955       0.159
  YS02001898           JUNCTION      0.00   517.46     0  02:06           0       0.953       0.015
  YS02001901           JUNCTION      0.00   518.03     0  02:06           0       0.956       0.347
  YS02001904           JUNCTION      0.00   517.50     0  02:06           0        0.96       0.301
  YS02001907           JUNCTION      0.00  1872.74     0  02:02           0        3.26       0.561
  YS02001910           JUNCTION      0.00  1358.00     0  02:02           0         2.3       0.317
  YS02001915           JUNCTION    896.00  1357.96     0  02:02        1.46        2.35       0.062
  YS02001918           JUNCTION      0.00   466.45     0  02:02           0       0.925       0.029
  YS02001920           JUNCTION      2.87   466.48     0  02:02      0.0827       0.906       0.105
  YS02001923           JUNCTION      0.04   461.42     0  01:58     0.00109       0.806      -0.125
  YS02001926           JUNCTION      0.05   691.25     0  01:58      0.0015       0.784      -0.037
  YS02001929           JUNCTION    430.63   560.52     0  01:58       0.767        0.77      -0.018
  YS02006553           JUNCTION      0.00   798.21     0  02:18           0        2.19       0.549
  YS02006556           JUNCTION      0.00   798.28     0  02:18           0         2.2       0.375
  YS02006558           JUNCTION   1054.31  1165.71     0  01:59        1.54        3.71       0.093
  YS02006561           JUNCTION      0.00  1163.86     0  01:59           0        3.68       0.000
  YS02163301           JUNCTION      0.00   931.21     0  01:57           0        3.15       0.047
  YS02163601           JUNCTION      0.11  1396.16     0  01:57     0.00317        4.31       0.117
  YS02164001           JUNCTION      0.00  1394.01     0  01:57           0        4.31       0.052
  CC-1                 OUTFALL       0.00   683.00     0  00:00           0         2.9       0.000
  CC-2                 OUTFALL       0.00   683.00     0  00:00           0        2.71       0.000
  JK-1                 OUTFALL       0.00  1000.00     0  00:00           0        2.17       0.000
  JK-2                 OUTFALL       0.00  1000.00     0  00:00           0       0.486       0.000
  WSC                  OUTFALL       0.00   556.67     0  02:25           0        6.15       0.000
  CC-storage           STORAGE       0.00  3473.79     0  02:00           0        11.9      -0.254
  JK-storage           STORAGE       0.00  1234.67     0  02:01           0        3.87       0.190
  
  
  **********************
  Node Surcharge Summary
  **********************
  
  Surcharging occurs when water rises above the top of the highest conduit.
  ---------------------------------------------------------------------
                                               Max. Height   Min. Depth
                                   Hours       Above Crown    Below Rim
  Node                 Type      Surcharged         Meters       Meters
  ---------------------------------------------------------------------
  WS02004404           JUNCTION        0.02          0.026        2.754
  WS02006109           JUNCTION        2.05          0.778        1.042
  WS02006110           JUNCTION        0.53          0.753        1.097
  WS02006112           JUNCTION        0.63          0.095        1.585
  WS02006228           JUNCTION        2.03          0.723        1.477
  WS02006229           JUNCTION        2.09          0.819        1.631
  WS02006230           JUNCTION        0.54          0.923        0.647
  WS02006231           JUNCTION        0.66          0.816        0.714
  WS02006232           JUNCTION        2.32          0.901        0.579
  WS02006234           JUNCTION        0.98          0.773        0.467
  WS02006235           JUNCTION        2.07          0.814        0.476
  WS02006238           JUNCTION        2.19          0.831        0.599
  WS02006239           JUNCTION        2.09          0.870        0.420
  WS02006240           JUNCTION        2.12          0.941        0.449
  WS02006242           JUNCTION        2.38          0.820        0.000
  WS02006243           JUNCTION        2.16          0.770        0.000
  WS02006245           JUNCTION        2.15          0.766        0.084
  WS02006247           JUNCTION        2.20          0.665        0.095
  WS02006248           JUNCTION        2.11          0.380        0.000
  WS02006249           JUNCTION        2.17          0.390        0.000
  WS02006251           JUNCTION        0.71          0.327        0.853
  WS02006252           JUNCTION        2.97          1.100        0.000
  WS02006256           JUNCTION        7.02          2.050        0.000
  YS02001580           JUNCTION        0.55          0.450        0.000
  YS02001583           JUNCTION        0.56          0.500        0.000
  YS02001586           JUNCTION        0.67          0.510        0.000
  YS02001590           JUNCTION        0.74          0.750        0.000
  YS02001593           JUNCTION        0.75          0.719        0.121
  YS02001596           JUNCTION        0.85          0.956        0.114
  YS02001600           JUNCTION        0.98          1.190        0.000
  YS02001601           JUNCTION        1.33          1.440        0.000
  YS02001602           JUNCTION        1.22          1.270        0.000
  YS02001605           JUNCTION        1.16          1.180        0.000
  YS02001607           JUNCTION        0.72          0.680        0.000
  YS02001610           JUNCTION        0.75          0.680        0.000
  YS02001613           JUNCTION        0.72          0.700        0.000
  YS02001616           JUNCTION        0.68          0.610        0.000
  YS02001619           JUNCTION        0.67          0.610        0.000
  YS02001622           JUNCTION        0.66          0.620        0.000
  YS02001625           JUNCTION        0.83          0.780        0.000
  YS02001629           JUNCTION        0.62          0.470        0.000
  YS02001633           JUNCTION        0.85          1.051        0.009
  YS02001641           JUNCTION        0.80          0.990        0.110
  YS02001644           JUNCTION        0.77          0.920        0.000
  YS02001647           JUNCTION        0.58          0.806        0.094
  YS02001649           JUNCTION        0.70          1.023        0.027
  YS02001652           JUNCTION        0.50          0.900        0.230
  YS02001655           JUNCTION        0.36          0.947        0.253
  YS02001658           JUNCTION        0.19          0.953        0.347
  YS02001661           JUNCTION        0.02          0.295        1.095
  YS02001745           JUNCTION        0.01          0.420        0.930
  YS02001748           JUNCTION        0.13          0.694        0.496
  YS02001751           JUNCTION        0.26          1.200        0.000
  YS02001754           JUNCTION        0.42          0.937        0.213
  YS02001757           JUNCTION        0.76          1.103        0.107
  YS02001759           JUNCTION        0.66          1.078        0.132
  YS02001762           JUNCTION        0.63          1.055        0.095
  YS02001765           JUNCTION        0.58          1.007        0.093
  YS02001767           JUNCTION        0.55          0.965        0.065
  YS02001770           JUNCTION        0.53          0.920        0.000
  YS02001774           JUNCTION        0.61          1.009        0.041
  YS02001779           JUNCTION        0.41          0.680        0.000
  YS02001783           JUNCTION        0.50          0.508        1.092
  YS02001784           JUNCTION        0.47          0.388        1.102
  YS02001786           JUNCTION        0.38          0.122        1.308
  YS02001882           JUNCTION        0.45          0.737        0.093
  YS02001884           JUNCTION        0.46          0.771        0.099
  YS02001887           JUNCTION        0.49          0.884        0.066
  YS02001890           JUNCTION        0.50          0.760        0.000
  YS02001895           JUNCTION        0.44          0.584        0.166
  YS02001898           JUNCTION        0.43          0.563        0.177
  YS02001901           JUNCTION        0.47          0.698        0.172
  YS02001904           JUNCTION        0.47          0.650        0.200
  YS02001907           JUNCTION        0.68          0.950        0.000
  YS02001910           JUNCTION        0.52          0.980        0.120
  YS02001915           JUNCTION        0.44          0.934        0.066
  YS02001918           JUNCTION        0.37          0.810        0.000
  YS02001920           JUNCTION        0.38          1.140        0.000
  YS02001923           JUNCTION        0.07          0.820        0.000
  YS02001926           JUNCTION        0.11          0.900        0.000
  YS02001929           JUNCTION        0.01          0.780        0.000
  YS02006553           JUNCTION        0.70          1.013        0.177
  YS02006556           JUNCTION        0.60          0.948        0.402
  YS02006558           JUNCTION        0.59          0.975        0.425
  YS02006561           JUNCTION        0.33          0.175        0.975
  YS02163301           JUNCTION        0.84          0.942        0.088
  YS02163601           JUNCTION        0.88          1.080        0.000
  YS02164001           JUNCTION        0.81          1.013        0.087
  
  
  *********************
  Node Flooding Summary
  *********************
  
  Flooding refers to all water that overflows a node, whether it ponds or not.
  --------------------------------------------------------------------------
                                                             Total   Maximum
                                 Maximum   Time of Max       Flood    Ponded
                        Hours       Rate    Occurrence      Volume     Depth
  Node                 Flooded       LPS   days hr:min    10^6 ltr    Meters
  --------------------------------------------------------------------------
  WS02006242              0.01      0.96      0  03:06       0.000     0.000
  WS02006243              0.01      0.53      0  03:06       0.000     0.000
  WS02006248              0.01     19.37      0  02:05       0.000     0.000
  WS02006249              0.69     98.06      0  02:00       0.164     0.000
  WS02006252              0.01    245.63      0  00:00       0.000     0.000
  WS02006256              0.93    293.19      0  00:00       0.319     0.000
  YS02001580              0.01    106.93      0  01:55       0.000     0.000
  YS02001583              0.01    157.19      0  01:55       0.000     0.000
  YS02001586              0.44    348.52      0  02:04       0.281     0.000
  YS02001590              0.01     47.38      0  01:53       0.000     0.000
  YS02001600              0.01      0.95      0  01:55       0.000     0.000
  YS02001601              0.61   1150.55      0  02:03       1.209     0.000
  YS02001602              0.52     61.98      0  02:04       0.103     0.000
  YS02001605              0.01      3.65      0  01:55       0.000     0.000
  YS02001607              0.01      6.26      0  01:55       0.000     0.000
  YS02001610              0.45    628.63      0  02:04       0.555     0.000
  YS02001613              0.01     10.04      0  01:55       0.000     0.000
  YS02001616              0.01     29.03      0  01:55       0.000     0.000
  YS02001619              0.01     37.62      0  01:55       0.000     0.000
  YS02001622              0.01    157.64      0  01:55       0.000     0.000
  YS02001625              0.42   1247.13      0  02:04       0.963     0.000
  YS02001629              0.09    247.03      0  02:01       0.047     0.000
  YS02001644              0.16    809.95      0  02:01       0.283     0.000
  YS02001751              0.01    223.82      0  01:59       0.000     0.000
  YS02001770              0.01     13.65      0  02:00       0.000     0.000
  YS02001779              0.14    408.49      0  02:02       0.128     0.000
  YS02001890              0.14    287.43      0  02:01       0.084     0.000
  YS02001907              0.31   1767.46      0  02:02       1.057     0.000
  YS02001918              0.01    270.76      0  01:58       0.004     0.000
  YS02001920              0.01     75.36      0  01:58       0.000     0.000
  YS02001923              0.01    278.06      0  01:58       0.001     0.000
  YS02001926              0.01    133.39      0  01:58       0.001     0.000
  YS02001929              0.01    227.68      0  01:58       0.001     0.000
  YS02163601              0.01      3.50      0  01:59       0.000     0.000
  
  
  **********************
  Storage Volume Summary
  **********************
  
  ------------------------------------------------------------------------------------------------
                         Average    Avg   Evap  Exfil     Maximum    Max    Time of Max    Maximum
                          Volume   Pcnt   Pcnt   Pcnt      Volume   Pcnt     Occurrence    Outflow
  Storage Unit           1000 m³   Full   Loss   Loss     1000 m³   Full    days hr:min        LPS
  ------------------------------------------------------------------------------------------------
  CC-storage               2.362   36.8    0.0    0.0       4.544   70.9       0  02:28    1783.53
  JK-storage               0.146   50.1    0.0    0.0       0.213   73.0       0  02:16    2300.00
  
  
  ***********************
  Outfall Loading Summary
  ***********************
  
  -----------------------------------------------------------
                         Flow       Avg       Max       Total
                         Freq      Flow      Flow      Volume
  Outfall Node           Pcnt       LPS       LPS    10^6 ltr
  -----------------------------------------------------------
  CC-1                  16.09    683.00    683.00       2.903
  CC-2                  14.97    683.00    683.00       2.714
  JK-1                   9.37   1000.00   1000.00       2.170
  JK-2                   2.46   1000.00   1000.00       0.486
  WSC                   99.96    278.79    556.67       6.155
  -----------------------------------------------------------
  System                28.57   3644.79   3366.23      14.427
  
  
  ********************
  Link Flow Summary
  ********************
  
  -----------------------------------------------------------------------------
                                 Maximum  Time of Max   Maximum    Max/    Max/
                                  |Flow|   Occurrence   |Veloc|    Full    Full
  Link                 Type          LPS  days hr:min     m/sec    Flow   Depth
  -----------------------------------------------------------------------------
  1                    CONDUIT    556.67     0  02:25      2.83    0.19    0.30
  WS02003060WS02003069 CONDUIT    555.39     0  02:23      1.64    0.22    0.34
  WS02003066WSF200     CONDUIT    538.70     0  02:23      2.86    0.09    0.22
  WS02003067WS02003066 CONDUIT    538.70     0  02:22      1.21    0.17    0.42
  WS02003069WS02003072 CONDUIT    555.40     0  02:24      1.37    0.27    0.39
  WS02003072WS02003073 CONDUIT    555.09     0  02:24      1.44    1.20    0.37
  WS02004401WS02004402 CONDUIT    540.10     0  02:17      0.98    0.65    0.89
  WS02004402WS02004403 CONDUIT    541.63     0  02:17      0.97    0.78    0.91
  WS02004403WS02004404 CONDUIT    559.62     0  02:15      0.92    0.40    0.96
  WS02004404WS02004405 CONDUIT    608.98     0  02:19      1.08    5.97    0.98
  WS02004405WS02004406 CONDUIT    548.57     0  02:21      0.99    1.08    0.96
  WS02004406WS02004407 CONDUIT    541.37     0  02:21      1.04    0.24    0.63
  WS02004407WS02004409 CONDUIT    540.54     0  02:21      1.50    0.19    0.48
  WS02004409WS02004410 CONDUIT    539.83     0  02:21      0.98    0.70    0.68
  WS02004410WS02004411 CONDUIT    539.54     0  02:22      0.94    0.74    0.69
  WS02004411WS02004412 CONDUIT    539.22     0  02:22      0.93    0.77    0.70
  WS02004412WS02004413 CONDUIT    539.04     0  02:22      0.82    0.36    0.78
  WS02004413WS02003067 CONDUIT    538.73     0  02:22      1.11    0.23    0.59
  WS02006109WS02006110 CONDUIT    563.45     0  02:55      1.12    1.08    1.00
  WS02006110WS02006113 CONDUIT    573.90     0  02:56      1.39    0.52    0.79
  WS02006111WS02006112 CONDUIT    544.14     0  02:58      1.81    0.26    0.67
  WS02006112WS02006115 CONDUIT    550.61     0  02:35      0.80    0.33    0.88
  WS02006113WS02006111 CONDUIT    563.06     0  02:47      2.47    0.67    0.46
  WS02006115WS02006116 CONDUIT    540.02     0  02:19      0.97    0.69    0.79
  WS02006116WS02004401 CONDUIT    539.33     0  02:17      0.98    0.74    0.87
  WS02006228WS02006109 CONDUIT    562.04     0  02:55      1.12    2.46    1.00
  WS02006229WS02006228 CONDUIT    562.31     0  02:55      1.14    1.86    1.00
  WS02006230WS02006229 CONDUIT    562.06     0  02:55      1.46   12.51    1.00
  WS02006231WS02006230 CONDUIT    578.16     0  02:05      1.57    8.77    1.00
  WS02006232WS02006231 CONDUIT    573.61     0  02:25      1.50    1.20    1.00
  WS02006234WS02006232 CONDUIT    572.89     0  02:25      1.49    1.16    1.00
  WS02006235WS02006234 CONDUIT    568.19     0  02:25      1.48    5.99    1.00
  WS02006238WS02006235 CONDUIT    424.68     0  02:50      1.45    0.95    1.00
  WS02006239WS02006238 CONDUIT    424.02     0  02:20      1.10    1.36    1.00
  WS02006240WS02006239 CONDUIT    422.87     0  02:50      1.24    1.33    1.00
  WS02006242WS02006240 CONDUIT    420.36     0  02:50      1.13    1.67    1.00
  WS02006243WS02006242 CONDUIT    421.12     0  02:50      1.40    0.90    1.00
  WS02006245WS02006243 CONDUIT    420.56     0  02:20      1.45    1.24    1.00
  WS02006247WS02006245 CONDUIT    420.20     0  02:20      1.43    3.33    1.00
  WS02006248WS02006247 CONDUIT    419.98     0  02:20      1.46    0.91    1.00
  WS02006249WS02006248 CONDUIT    420.76     0  02:20      1.41    2.30    1.00
  WS02006251WS02006249 CONDUIT    476.88     0  01:35      1.99    1.38    1.00
  WS02006252WS02006251 CONDUIT    406.53     0  02:00     28.18    1.49    1.00
  WS02006256WS02006235 CONDUIT    288.91     0  00:00      4.23    3.06    1.00
  WSF200WS02003060     CONDUIT    539.12     0  02:22      2.06    0.12    0.28
  YS02001580YS02001583 CONDUIT    120.40     0  01:55      0.74    0.47    1.00
  YS02001583YS02001586 CONDUIT    174.38     0  01:55      0.73    0.26    1.00
  YS02001586YS02001590 CONDUIT    318.12     0  02:08      1.26    0.56    1.00
  YS02001590YS02001593 CONDUIT    318.13     0  02:08      1.13    2.00    1.00
  YS02001593YS02001596 CONDUIT    318.21     0  02:11      1.74    0.50    1.00
  YS02001596YS02001600 CONDUIT    318.04     0  02:03      1.23    0.62    1.00
  YS02001600YS02001601 CONDUIT    318.01     0  02:08      1.12    0.55    1.00
  YS02001601YS02001602 CONDUIT    533.58     0  01:55      1.89    1.93    1.00
  YS02001602YS02001605 CONDUIT    533.32     0  01:55      1.89   11.29    1.00
  YS02001605YS02001607 CONDUIT    532.86     0  01:55      1.88    2.92    1.00
  YS02001607YS02001610 CONDUIT    541.96     0  01:55      0.69    0.52    1.00
  YS02001610YS02001613 CONDUIT    549.42     0  01:55      0.70    0.63    1.00
  YS02001613YS02001616 CONDUIT    550.88     0  01:54      0.71    0.47    1.00
  YS02001616YS02001619 CONDUIT    510.14     0  01:55      0.67    0.89    1.00
  YS02001619YS02001622 CONDUIT    933.12     0  02:01      1.21    1.38    1.00
  YS02001622YS02001625 CONDUIT    938.92     0  01:55      1.20    0.50    1.00
  YS02001625YS02001629 CONDUIT    938.90     0  01:55      1.20    0.45    1.00
  YS02001629YS02163301 CONDUIT    931.21     0  01:57      1.19    1.15    1.00
  YS02001633YS02163601 CONDUIT   1396.05     0  01:57      1.78    1.47    1.00
  YS02001641YS02001644 CONDUIT   1391.32     0  01:57      1.77    4.50    1.00
  YS02001644YS02001647 CONDUIT   1820.58     0  01:57      2.35    1.07    1.00
  YS02001647YS02001649 CONDUIT   1840.89     0  01:57      2.36    0.97    1.00
  YS02001649YS02001757 CONDUIT   2069.09     0  01:57      2.64    1.26    1.00
  YS02001652YS02001649 CONDUIT    928.58     0  02:01      1.18    0.46    1.00
  YS02001655YS02001652 CONDUIT    927.91     0  02:01      1.37    0.45    1.00
  YS02001658YS02001655 CONDUIT    925.57     0  02:01      1.94    0.39    1.00
  YS02001661YS02001658 CONDUIT    925.50     0  02:01      2.36    0.36    1.00
  YS02001664YS02001661 CONDUIT    922.57     0  02:01      2.40    0.29    0.90
  YS02001745YS02001748 CONDUIT    601.35     0  02:00      2.25    0.23    1.00
  YS02001748YS02001751 CONDUIT    603.31     0  02:00      1.75    0.30    1.00
  YS02001751YS02001754 CONDUIT    603.57     0  02:00      1.48    0.29    1.00
  YS02001754YS02001757 CONDUIT    603.71     0  02:00      0.77    0.24    1.00
  YS02001757CaochengTiaoxuchi CONDUIT   3473.79     0  02:00      4.42    1.50    1.00
  YS02001759YS02001757 CONDUIT   1435.40     0  01:59      1.83    1.02    1.00
  YS02001762YS02001759 CONDUIT    821.92     0  01:59      1.05    0.95    1.00
  YS02001765YS02001762 CONDUIT    819.20     0  01:59      1.04    0.77    1.00
  YS02001767YS02001765 CONDUIT    815.80     0  01:59      1.04    1.03    1.00
  YS02001770YS02001767 CONDUIT    815.41     0  01:59      1.04    3.23    1.00
  YS02001774YS02001770 CONDUIT    415.44     0  01:58      0.53    0.27    1.00
  YS02001779YS02001774 CONDUIT    421.68     0  01:58      0.54    0.21    1.00
  YS02001783YS02001784 CONDUIT   1164.48     0  02:00      2.32    1.61    1.00
  YS02001784YS02001785 CONDUIT   1165.54     0  02:00      2.32    2.71    1.00
  YS02001786YS02001788 CONDUIT   1166.07     0  02:00      2.48    2.25    0.89
  YS02001788YS02001790 CONDUIT   1180.00     0  02:01      2.72    0.87    0.84
  YS02001790YS02001791 CONDUIT   1292.09     0  02:00      3.44    1.41    0.70
  YS02001791YS02001793 CONDUIT   1261.82     0  02:01      6.69    0.54    0.45
  YS02001793JiankangQianchi CONDUIT   1234.67     0  02:01      2.44    0.10    0.65
  YS02001882YS02001884 CONDUIT     49.09     0  01:56      0.11    0.06    1.00
  YS02001884YS02001887 CONDUIT     77.29     0  01:56      0.10    0.10    1.00
  YS02001887YS02001890 CONDUIT    798.27     0  02:01      1.02    1.37    1.00
  YS02001890YS02001895 CONDUIT    517.31     0  02:06      0.66    0.24    1.00
  YS02001895YS02001898 CONDUIT    517.46     0  02:06      0.66    0.90    1.00
  YS02001898YS02001901 CONDUIT    518.03     0  02:06      0.66    0.33    1.00
  YS02001901YS02001904 CONDUIT    517.50     0  02:06      0.66    0.80    1.00
  YS02001904YS02001907 CONDUIT    517.52     0  02:06      0.66    0.18    1.00
  YS02001907YS02006553 CONDUIT    798.21     0  02:18      0.89    0.94    1.00
  YS02001910YS02001907 CONDUIT   1358.47     0  02:02      1.73    0.77    1.00
  YS02001915YS02001910 CONDUIT   1358.00     0  02:02      1.73    0.67    1.00
  YS02001918YS02001915 CONDUIT    466.88     0  02:02      0.59    0.26    1.00
  YS02001920YS02001918 CONDUIT    466.45     0  02:02      0.65    0.45    1.00
  YS02001923YS02001920 CONDUIT    463.61     0  02:02      0.70    0.21    1.00
  YS02001926YS02001923 CONDUIT    458.47     0  02:02      0.98    0.65    1.00
  YS02001929YS02001926 CONDUIT    457.69     0  02:02      1.16    0.22    1.00
  YS02006553YS02006556 CONDUIT    798.28     0  02:18      1.02    0.68    1.00
  YS02006556YS02006558 CONDUIT    800.43     0  02:18      1.02    0.63    1.00
  YS02006558YS02006561 CONDUIT   1163.86     0  01:59      4.12    2.57    1.00
  YS02006561YS02001783 CONDUIT   1164.31     0  02:00      2.32    0.60    1.00
  YS02163301YS02001633 CONDUIT    930.38     0  01:57      1.18    0.87    1.00
  YS02163601YS02164001 CONDUIT   1394.01     0  01:57      1.77    1.24    1.00
  YS02164001YS02001641 CONDUIT   1391.39     0  01:57      1.77    1.90    1.00
  CC-R1                PUMP       683.00     0  00:00              1.00
  CC-R2                PUMP       683.00     0  00:00              1.00
  CC-S1                PUMP       200.00     0  00:00              1.00
  CC-S2                PUMP       200.00     0  00:00              1.00
  JK-R1                PUMP      1000.00     0  00:00              1.00
  JK-R2                PUMP      1000.00     0  00:00              1.00
  JK-S                 PUMP       300.00     0  00:00              1.00
  
  
  ***************************
  Flow Classification Summary
  ***************************
  
  -------------------------------------------------------------------------------------
                      Adjusted    ---------- Fraction of Time in Flow Class ---------- 
                       /Actual         Up    Down  Sub   Sup   Up    Down  Norm  Inlet 
  Conduit               Length    Dry  Dry   Dry   Crit  Crit  Crit  Crit  Ltd   Ctrl  
  -------------------------------------------------------------------------------------
  1                       1.00   0.00  0.00  0.00  0.00  1.00  0.00  0.00  0.42  0.00
  WS02003060WS02003069    1.00   0.00  0.00  0.00  0.97  0.03  0.00  0.00  0.59  0.00
  WS02003066WSF200        1.00   0.13  0.00  0.00  0.00  0.87  0.00  0.00  0.78  0.00
  WS02003067WS02003066    1.00   0.10  0.02  0.00  0.88  0.00  0.00  0.00  0.00  0.00
  WS02003069WS02003072    1.00   0.00  0.00  0.00  0.99  0.01  0.00  0.00  0.69  0.00
  WS02003072WS02003073    1.00   0.00  0.00  0.00  0.00  0.00  0.00  1.00  0.00  0.00
  WS02004401WS02004402    1.00   0.02  0.00  0.00  0.98  0.00  0.00  0.00  0.00  0.00
  WS02004402WS02004403    1.00   0.02  0.00  0.00  0.97  0.00  0.00  0.00  0.00  0.00
  WS02004403WS02004404    1.00   0.00  0.03  0.00  0.97  0.00  0.00  0.00  0.00  0.00
  WS02004404WS02004405    1.00   0.00  0.00  0.00  1.00  0.00  0.00  0.00  0.01  0.00
  WS02004405WS02004406    1.00   0.00  0.00  0.00  1.00  0.00  0.00  0.00  0.00  0.00
  WS02004406WS02004407    1.00   0.00  0.05  0.00  0.95  0.00  0.00  0.00  0.00  0.00
  WS02004407WS02004409    1.00   0.05  0.00  0.00  0.94  0.01  0.00  0.00  0.95  0.00
  WS02004409WS02004410    1.00   0.05  0.00  0.00  0.95  0.00  0.00  0.00  0.03  0.00
  WS02004410WS02004411    1.00   0.05  0.00  0.00  0.95  0.00  0.00  0.00  0.01  0.00
  WS02004411WS02004412    1.00   0.05  0.00  0.00  0.95  0.00  0.00  0.00  0.00  0.00
  WS02004412WS02004413    1.00   0.05  0.00  0.00  0.94  0.00  0.00  0.00  0.01  0.00
  WS02004413WS02003067    1.00   0.06  0.04  0.00  0.00  0.00  0.90  0.00  0.00  0.00
  WS02006109WS02006110    1.00   0.00  0.01  0.00  0.98  0.00  0.01  0.00  0.00  0.00
  WS02006110WS02006113    1.00   0.01  0.01  0.00  0.98  0.00  0.00  0.00  0.00  0.00
  WS02006111WS02006112    1.00   0.02  0.00  0.00  0.98  0.00  0.00  0.00  0.98  0.00
  WS02006112WS02006115    1.00   0.02  0.00  0.00  0.97  0.00  0.00  0.00  0.00  0.00
  WS02006113WS02006111    1.00   0.02  0.00  0.00  0.00  0.98  0.00  0.00  0.16  0.00
  WS02006115WS02006116    1.00   0.02  0.00  0.00  0.97  0.00  0.00  0.01  0.00  0.00
  WS02006116WS02004401    1.00   0.02  0.00  0.00  0.98  0.00  0.00  0.00  0.00  0.00
  WS02006228WS02006109    1.00   0.00  0.00  0.00  1.00  0.00  0.00  0.00  0.01  0.00
  WS02006229WS02006228    1.00   0.00  0.00  0.00  0.99  0.00  0.00  0.01  0.00  0.00
  WS02006230WS02006229    1.00   0.00  0.00  0.00  0.99  0.00  0.00  0.01  0.01  0.00
  WS02006231WS02006230    1.00   0.00  0.00  0.00  0.33  0.00  0.67  0.00  0.00  0.00
  WS02006232WS02006231    1.00   0.00  0.00  0.00  0.99  0.00  0.01  0.00  0.00  0.00
  WS02006234WS02006232    1.00   0.00  0.00  0.00  1.00  0.00  0.00  0.00  0.08  0.00
  WS02006235WS02006234    1.00   0.00  0.00  0.00  0.87  0.00  0.13  0.00  0.00  0.00
  WS02006238WS02006235    1.00   0.00  0.00  0.00  1.00  0.00  0.00  0.00  0.00  0.00
  WS02006239WS02006238    1.00   0.00  0.00  0.00  1.00  0.00  0.00  0.00  0.14  0.00
  WS02006240WS02006239    1.00   0.00  0.00  0.00  0.64  0.00  0.00  0.36  0.01  0.00
  WS02006242WS02006240    1.00   0.00  0.00  0.00  0.99  0.00  0.01  0.00  0.00  0.00
  WS02006243WS02006242    1.00   0.00  0.00  0.00  0.99  0.00  0.00  0.01  0.44  0.00
  WS02006245WS02006243    1.00   0.00  0.00  0.00  0.82  0.00  0.00  0.18  0.01  0.00
  WS02006247WS02006245    1.00   0.00  0.00  0.00  0.96  0.00  0.00  0.04  0.00  0.00
  WS02006248WS02006247    1.00   0.00  0.00  0.00  0.99  0.00  0.00  0.01  0.35  0.00
  WS02006249WS02006248    1.00   0.00  0.00  0.00  0.58  0.00  0.42  0.00  0.00  0.00
  WS02006251WS02006249    1.00   0.00  0.00  0.00  0.99  0.01  0.00  0.00  0.43  0.00
  WS02006252WS02006251    1.00   0.00  0.43  0.00  0.09  0.00  0.48  0.00  0.02  0.00
  WS02006256WS02006235    1.00   0.00  0.00  0.00  1.00  0.00  0.00  0.00  0.00  0.00
  WSF200WS02003060        1.00   0.00  0.13  0.00  0.30  0.57  0.00  0.00  0.40  0.00
  YS02001580YS02001583    1.00   0.24  0.58  0.00  0.18  0.00  0.00  0.00  0.67  0.00
  YS02001583YS02001586    1.00   0.43  0.33  0.00  0.24  0.00  0.00  0.00  0.67  0.00
  YS02001586YS02001590    1.00   0.13  0.00  0.00  0.42  0.04  0.00  0.42  0.36  0.00
  YS02001590YS02001593    1.00   0.13  0.01  0.00  0.11  0.00  0.76  0.00  0.00  0.00
  YS02001593YS02001596    1.00   0.14  0.00  0.00  0.12  0.01  0.00  0.73  0.02  0.00
  YS02001596YS02001600    1.00   0.14  0.00  0.00  0.18  0.01  0.00  0.67  0.05  0.00
  YS02001600YS02001601    1.00   0.13  0.01  0.00  0.86  0.00  0.00  0.00  0.62  0.00
  YS02001601YS02001602    1.00   0.13  0.01  0.00  0.86  0.00  0.00  0.00  0.00  0.00
  YS02001602YS02001605    1.00   0.14  0.00  0.00  0.86  0.00  0.00  0.00  0.00  0.00
  YS02001605YS02001607    1.00   0.14  0.00  0.00  0.86  0.00  0.00  0.00  0.00  0.00
  YS02001607YS02001610    1.00   0.13  0.01  0.00  0.86  0.00  0.00  0.00  0.02  0.00
  YS02001610YS02001613    1.00   0.13  0.00  0.00  0.87  0.00  0.00  0.00  0.01  0.00
  YS02001613YS02001616    1.00   0.13  0.00  0.00  0.87  0.00  0.00  0.00  0.01  0.00
  YS02001616YS02001619    1.00   0.13  0.00  0.00  0.87  0.00  0.00  0.00  0.00  0.00
  YS02001619YS02001622    1.00   0.13  0.00  0.00  0.87  0.00  0.00  0.00  0.29  0.00
  YS02001622YS02001625    1.00   0.13  0.00  0.00  0.87  0.00  0.00  0.00  0.05  0.00
  YS02001625YS02001629    1.00   0.13  0.05  0.00  0.15  0.00  0.67  0.00  0.00  0.00
  YS02001629YS02163301    1.00   0.16  0.01  0.00  0.83  0.00  0.00  0.00  0.00  0.00
  YS02001633YS02163601    1.00   0.00  0.01  0.00  0.99  0.00  0.00  0.00  0.15  0.00
  YS02001641YS02001644    1.00   0.00  0.01  0.00  0.99  0.00  0.00  0.00  0.00  0.00
  YS02001644YS02001647    1.00   0.00  0.18  0.00  0.82  0.00  0.00  0.00  0.00  0.00
  YS02001647YS02001649    1.00   0.00  0.18  0.00  0.54  0.28  0.00  0.00  0.56  0.00
  YS02001649YS02001757    1.00   0.00  0.00  0.00  0.86  0.13  0.00  0.00  0.42  0.00
  YS02001652YS02001649    1.00   0.00  0.00  0.00  0.96  0.04  0.00  0.00  0.74  0.00
  YS02001655YS02001652    1.00   0.00  0.00  0.00  0.18  0.01  0.00  0.81  0.06  0.00
  YS02001658YS02001655    1.00   0.00  0.14  0.00  0.65  0.20  0.00  0.00  0.68  0.00
  YS02001661YS02001658    1.00   0.14  0.00  0.00  0.49  0.36  0.00  0.00  0.70  0.00
  YS02001664YS02001661    1.00   0.13  0.00  0.00  0.78  0.09  0.00  0.00  0.85  0.00
  YS02001745YS02001748    1.00   0.00  0.00  0.00  0.09  0.01  0.00  0.90  0.04  0.00
  YS02001748YS02001751    1.00   0.00  0.00  0.00  0.82  0.18  0.00  0.00  0.78  0.00
  YS02001751YS02001754    1.00   0.00  0.00  0.00  0.14  0.00  0.00  0.85  0.02  0.00
  YS02001754YS02001757    1.00   0.00  0.00  0.00  1.00  0.00  0.00  0.00  0.81  0.00
  YS02001757CaochengTiaoxuchi    1.00   0.00  0.00  0.00  0.97  0.03  0.00  0.00  0.64  0.00
  YS02001759YS02001757    1.00   0.00  0.00  0.00  1.00  0.00  0.00  0.00  0.52  0.00
  YS02001762YS02001759    1.00   0.00  0.00  0.00  1.00  0.00  0.00  0.00  0.06  0.00
  YS02001765YS02001762    1.00   0.00  0.00  0.00  1.00  0.00  0.00  0.00  0.68  0.00
  YS02001767YS02001765    1.00   0.00  0.00  0.00  1.00  0.00  0.00  0.00  0.01  0.00
  YS02001770YS02001767    1.00   0.00  0.00  0.00  1.00  0.00  0.00  0.00  0.00  0.00
  YS02001774YS02001770    1.00   0.00  0.13  0.00  0.69  0.00  0.17  0.00  0.03  0.00
  YS02001779YS02001774    1.00   0.00  0.00  0.00  1.00  0.00  0.00  0.00  0.79  0.00
  YS02001783YS02001784    1.00   0.00  0.19  0.00  0.81  0.00  0.00  0.00  0.56  0.00
  YS02001784YS02001785    1.00   0.00  0.00  0.00  1.00  0.00  0.00  0.00  0.17  0.00
  YS02001786YS02001788    1.00   0.00  0.00  0.00  0.80  0.20  0.00  0.00  0.00  0.00
  YS02001788YS02001790    1.00   0.00  0.00  0.00  0.22  0.78  0.00  0.00  0.82  0.00
  YS02001790YS02001791    1.00   0.00  0.00  0.00  0.01  0.99  0.00  0.00  0.15  0.00
  YS02001791YS02001793    1.00   0.00  0.00  0.00  0.00  1.00  0.00  0.00  0.01  0.00
  YS02001793JiankangQianchi    1.00   0.00  0.00  0.00  0.98  0.01  0.00  0.00  0.95  0.00
  YS02001882YS02001884    1.00   0.16  0.01  0.00  0.83  0.00  0.00  0.00  0.00  0.00
  YS02001884YS02001887    1.00   0.06  0.05  0.00  0.89  0.00  0.00  0.00  0.00  0.00
  YS02001887YS02001890    1.00   0.00  0.00  0.00  0.97  0.00  0.03  0.00  0.00  0.00
  YS02001890YS02001895    1.00   0.00  0.17  0.00  0.83  0.00  0.00  0.00  0.00  0.00
  YS02001895YS02001898    1.00   0.17  0.00  0.00  0.81  0.00  0.02  0.00  0.00  0.00
  YS02001898YS02001901    1.00   0.17  0.00  0.00  0.83  0.00  0.00  0.00  0.01  0.00
  YS02001901YS02001904    1.00   0.17  0.00  0.00  0.83  0.00  0.00  0.00  0.00  0.00
  YS02001904YS02001907    1.00   0.00  0.17  0.00  0.83  0.00  0.00  0.00  0.00  0.00
  YS02001907YS02006553    1.00   0.00  0.02  0.00  0.98  0.00  0.00  0.00  0.00  0.00
  YS02001910YS02001907    1.00   0.00  0.00  0.00  0.97  0.00  0.00  0.03  0.12  0.00
  YS02001915YS02001910    1.00   0.00  0.00  0.00  0.96  0.04  0.00  0.00  0.16  0.00
  YS02001918YS02001915    1.00   0.00  0.01  0.00  0.98  0.02  0.00  0.00  0.76  0.00
  YS02001920YS02001918    1.00   0.00  0.01  0.00  0.99  0.00  0.00  0.00  0.00  0.00
  YS02001923YS02001920    1.00   0.00  0.00  0.00  1.00  0.00  0.00  0.00  0.93  0.00
  YS02001926YS02001923    1.00   0.00  0.07  0.00  0.06  0.00  0.87  0.00  0.00  0.00
  YS02001929YS02001926    1.00   0.00  0.13  0.00  0.87  0.00  0.00  0.00  0.82  0.00
  YS02006553YS02006556    1.00   0.01  0.00  0.00  0.99  0.00  0.00  0.00  0.03  0.00
  YS02006556YS02006558    1.00   0.00  0.00  0.00  1.00  0.00  0.00  0.00  0.00  0.00
  YS02006558YS02006561    1.00   0.19  0.00  0.00  0.05  0.76  0.00  0.00  0.19  0.00
  YS02006561YS02001783    1.00   0.19  0.00  0.00  0.08  0.73  0.00  0.00  0.69  0.00
  YS02163301YS02001633    1.00   0.00  0.16  0.00  0.84  0.00  0.00  0.00  0.00  0.00
  YS02163601YS02164001    1.00   0.00  0.08  0.00  0.92  0.00  0.00  0.00  0.00  0.00
  YS02164001YS02001641    1.00   0.01  0.07  0.00  0.92  0.00  0.00  0.00  0.06  0.00
  
  
  *************************
  Conduit Surcharge Summary
  *************************
  
  ----------------------------------------------------------------------------
                                                           Hours        Hours 
                         --------- Hours Full --------   Above Full   Capacity
  Conduit                Both Ends  Upstream  Dnstream   Normal Flow   Limited
  ----------------------------------------------------------------------------
  WS02003072WS02003073        0.01      0.01      0.01      1.05         0.01
  WS02004403WS02004404        0.01      0.01      0.01      0.01         0.01
  WS02004404WS02004405        0.01      0.01      0.01      4.04         0.01
  WS02004405WS02004406        0.01      0.01      0.01      0.41         0.01
  WS02006109WS02006110        0.53      0.53      2.32      0.63         0.01
  WS02006110WS02006113        0.01      0.01      2.19      0.01         0.01
  WS02006111WS02006112        0.01      0.01      3.09      0.01         0.01
  WS02006112WS02006115        0.01      0.01      0.63      0.01         0.01
  WS02006228WS02006109        2.05      2.32      2.05      3.47         2.05
  WS02006229WS02006228        2.03      2.09      2.03      2.87         2.02
  WS02006230WS02006229        2.50      2.75      2.50      4.49         2.50
  WS02006231WS02006230        0.54      0.54      0.70      4.26         0.01
  WS02006232WS02006231        0.65      0.65      2.32      0.74         0.01
  WS02006234WS02006232        1.97      1.97      2.32      0.70         0.72
  WS02006235WS02006234        0.97      0.98      2.06      4.19         0.01
  WS02006238WS02006235        2.11      2.11      2.35      0.01         0.01
  WS02006239WS02006238        2.19      2.30      2.19      2.68         2.03
  WS02006240WS02006239        2.08      2.16      2.09      2.65         1.85
  WS02006242WS02006240        2.12      2.12      2.47      3.02         0.01
  WS02006243WS02006242        2.18      2.18      2.38      0.01         0.03
  WS02006245WS02006243        2.15      2.18      2.16      2.12         1.62
  WS02006247WS02006245        2.15      2.24      2.15      3.83         2.14
  WS02006248WS02006247        2.15      2.15      2.20      0.01         0.04
  WS02006249WS02006248        2.11      2.11      2.16      3.77         0.01
  WS02006251WS02006249        2.16      2.18      2.16      2.84         2.09
  WS02006252WS02006251        2.93      2.93      2.96      2.94         0.01
  WS02006256WS02006235        4.19      4.22      6.99      0.94         0.01
  YS02001580YS02001583        0.55      0.55      0.60      0.01         0.01
  YS02001583YS02001586        0.56      0.56      0.67      0.01         0.01
  YS02001586YS02001590        0.68      0.68      0.74      0.01         0.01
  YS02001590YS02001593        0.75      0.75      0.76      0.79         0.01
  YS02001593YS02001596        0.75      0.75      0.85      0.01         0.01
  YS02001596YS02001600        0.89      0.89      0.98      0.01         0.01
  YS02001600YS02001601        1.04      1.04      1.33      0.01         0.01
  YS02001601YS02001602        1.22      1.22      1.37      0.98         0.01
  YS02001602YS02001605        1.16      1.16      1.22      2.14         0.01
  YS02001605YS02001607        1.11      1.16      1.11      1.29         1.11
  YS02001607YS02001610        0.72      0.72      0.75      0.01         0.01
  YS02001610YS02001613        0.72      0.72      0.75      0.01         0.01
  YS02001613YS02001616        0.68      0.68      0.72      0.01         0.01
  YS02001616YS02001619        0.67      0.67      0.68      0.01         0.01
  YS02001619YS02001622        0.66      0.67      0.66      0.75         0.63
  YS02001622YS02001625        0.66      0.66      0.83      0.01         0.01
  YS02001625YS02001629        0.62      0.62      0.83      0.01         0.01
  YS02001629YS02163301        0.83      0.83      0.83      0.14         0.15
  YS02001633YS02163601        0.85      0.85      0.88      0.32         0.32
  YS02001641YS02001644        0.77      0.80      0.77      1.40         0.76
  YS02001644YS02001647        0.58      0.58      0.77      0.04         0.01
  YS02001647YS02001649        0.58      0.58      0.70      0.01         0.01
  YS02001649YS02001757        0.69      0.70      0.76      0.07         0.04
  YS02001652YS02001649        0.53      0.53      0.70      0.01         0.01
  YS02001655YS02001652        0.36      0.36      0.50      0.01         0.01
  YS02001658YS02001655        0.18      0.18      0.36      0.01         0.01
  YS02001661YS02001658        0.02      0.02      0.19      0.01         0.01
  YS02001664YS02001661        0.01      0.01      0.06      0.01         0.01
  YS02001745YS02001748        0.01      0.01      0.13      0.01         0.01
  YS02001748YS02001751        0.17      0.17      0.26      0.01         0.01
  YS02001751YS02001754        0.26      0.26      0.42      0.01         0.01
  YS02001754YS02001757        0.46      0.46      0.76      0.01         0.01
  YS02001757CaochengTiaoxuchi        0.72      0.76      1.90      0.34         0.27
  YS02001759YS02001757        0.66      0.66      0.76      0.01         0.02
  YS02001762YS02001759        0.63      0.63      0.66      0.01         0.02
  YS02001765YS02001762        0.58      0.58      0.63      0.01         0.01
  YS02001767YS02001765        0.55      0.55      0.58      0.01         0.03
  YS02001770YS02001767        0.55      0.55      0.55      0.49         0.39
  YS02001774YS02001770        0.53      0.53      0.61      0.01         0.01
  YS02001779YS02001774        0.41      0.41      0.61      0.01         0.01
  YS02001783YS02001784        0.47      0.50      0.47      0.63         0.47
  YS02001784YS02001785        0.38      0.47      0.38      0.83         0.38
  YS02001786YS02001788        0.01      0.38      0.01      0.71         0.01
  YS02001790YS02001791        0.01      0.01      0.01      0.46         0.01
  YS02001793JiankangQianchi        0.01      0.01      7.70      0.01         0.01
  YS02001882YS02001884        0.45      0.45      0.46      0.01         0.01
  YS02001884YS02001887        0.48      0.48      0.49      0.01         0.01
  YS02001887YS02001890        0.50      0.50      0.51      0.11         0.01
  YS02001890YS02001895        0.44      0.44      0.53      0.01         0.01
  YS02001895YS02001898        0.43      0.43      0.44      0.01         0.01
  YS02001898YS02001901        0.44      0.44      0.47      0.01         0.01
  YS02001901YS02001904        0.47      0.47      0.47      0.01         0.01
  YS02001904YS02001907        0.47      0.47      0.70      0.01         0.01
  YS02001907YS02006553        0.84      0.84      0.90      0.01         0.01
  YS02001910YS02001907        0.52      0.52      0.68      0.01         0.01
  YS02001915YS02001910        0.44      0.44      0.52      0.01         0.01
  YS02001918YS02001915        0.37      0.37      0.44      0.01         0.01
  YS02001920YS02001918        0.37      0.37      0.38      0.01         0.01
  YS02001923YS02001920        0.32      0.32      0.38      0.01         0.01
  YS02001926YS02001923        0.07      0.07      0.11      0.01         0.01
  YS02001929YS02001926        0.01      0.01      0.11      0.01         0.01
  YS02006553YS02006556        0.60      0.60      0.70      0.01         0.01
  YS02006556YS02006558        0.65      0.65      0.71      0.01         0.01
  YS02006558YS02006561        0.40      0.59      0.40      0.78         0.40
  YS02006561YS02001783        0.33      0.33      0.50      0.01         0.01
  YS02163301YS02001633        0.83      0.83      0.87      0.01         0.01
  YS02163601YS02164001        0.81      0.81      0.88      0.06         0.01
  YS02164001YS02001641        0.80      0.81      0.80      0.66         0.59
  
  
  ***************
  Pumping Summary
  ***************
  
  ---------------------------------------------------------------------------------------------------------
                                                  Min       Avg       Max     Total     Power    % Time Off
                        Percent   Number of      Flow      Flow      Flow    Volume     Usage    Pump Curve
  Pump                 Utilized   Start-Ups       LPS       LPS       LPS  10^6 ltr     Kw-hr    Low   High
  ---------------------------------------------------------------------------------------------------------
  CC-R1                   14.76           3      0.00    683.00    683.00     2.904     54.39    0.0   12.8
  CC-R2                   13.80           3      0.00    683.00    683.00     2.715     50.88    0.0   13.7
  CC-S1                   44.22          16      0.00    200.00    200.00     2.547     15.51    0.0    0.0
  CC-S2                   41.48          28      0.00    200.00    200.00     2.389     14.76    0.0    0.0
  JK-R1                    7.53           9      0.00   1000.00   1000.00     2.169     24.45    0.0    0.0
  JK-R2                    1.69           6      0.00   1000.00   1000.00     0.487      3.80    0.0    0.0
  JK-S                    11.69          13      0.00    300.00    300.00     1.010     15.20    0.0    0.0
  

  Analysis begun on:  Wed Jan 15 10:42:29 2025
  Analysis ended on:  Wed Jan 15 10:42:30 2025
  Total elapsed time: 00:00:01