
  EPA STORM WATER MANAGEMENT MODEL - VERSION 5.2 (Build 5.2.4)
  PYSWMM TOOLKIT API - VERSION v1.0 (2023-11-27)
  ------------------------------------------------------------

  WARNING 04: minimum elevation drop used for Conduit WS02004404WS02004405
  WARNING 03: negative offset ignored for Link YS02001904YS02001907
  
  ****************
  Analysis Options
  ****************
  Flow Units ............... LPS
  Process Models:
    Rainfall/Runoff ........ YES
    RDII ................... NO
    Snowmelt ............... NO
    Groundwater ............ NO
    Flow Routing ........... YES
    Ponding Allowed ........ NO
    Water Quality .......... NO
  Infiltration Method ...... HORTON
  Flow Routing Method ...... DYNWAVE
  Surcharge Method ......... EXTRAN
  Starting Date ............ 08/28/2015 08:00:00
  Ending Date .............. 08/28/2015 16:00:00
  Antecedent Dry Days ...... 8.0
  Report Time Step ......... 00:01:00
  Wet Time Step ............ 00:01:00
  Dry Time Step ............ 00:01:00
  Routing Time Step ........ 30.00 sec
  Variable Time Step ....... YES
  Maximum Trials ........... 8
  Number of Threads ........ 4
  Head Tolerance ........... 0.001500 m
  
  
  **************************        Volume         Depth
  Runoff Quantity Continuity     hectare-m            mm
  **************************     ---------       -------
  Total Precipitation ......         2.305        69.496
  Evaporation Loss .........         0.000         0.000
  Infiltration Loss ........         0.101         3.059
  Surface Runoff ...........         2.171        65.454
  Final Storage ............         0.033         0.995
  Continuity Error (%) .....        -0.017
  
  
  **************************        Volume        Volume
  Flow Routing Continuity        hectare-m      10^6 ltr
  **************************     ---------     ---------
  Dry Weather Inflow .......         0.025         0.251
  Wet Weather Inflow .......         2.172        21.716
  Groundwater Inflow .......         0.000         0.000
  RDII Inflow ..............         0.000         0.000
  External Inflow ..........         0.083         0.834
  External Outflow .........         1.713        17.130
  Flooding Loss ............         0.636         6.361
  Evaporation Loss .........         0.000         0.000
  Exfiltration Loss ........         0.000         0.000
  Initial Stored Volume ....         0.243         2.431
  Final Stored Volume ......         0.183         1.825
  Continuity Error (%) .....        -0.334
  
  
  *************************
  Highest Continuity Errors
  *************************
  Node YS02001884 (5.13%)
  Node YS02001583 (-4.03%)
  Node WS02006256 (-2.09%)
  
  
  ***************************
  Time-Step Critical Elements
  ***************************
  Link WS02006252WS02006251 (45.62%)
  Link WS02006238WS02006235 (14.54%)
  Link WS02004404WS02004405 (11.45%)
  Link WS02006235WS02006234 (7.59%)
  Link YS02001791YS02001793 (6.91%)
  
  
  ********************************
  Highest Flow Instability Indexes
  ********************************
  Link WS02006113WS02006111 (46)
  Link WS02006111WS02006112 (21)
  Link WS02006256WS02006235 (15)
  Link WS02006238WS02006235 (14)
  Link WS02006252WS02006251 (13)
  
  
  *********************************
  Most Frequent Nonconverging Nodes
  *********************************
  Node CC-1 (13.48%)
  Node CC-2 (13.48%)
  Node JK-1 (13.48%)
  Node JK-2 (13.48%)
  Node WSC (13.48%)
  
  
  *************************
  Routing Time Step Summary
  *************************
  Minimum Time Step           :     0.01 sec
  Average Time Step           :     2.07 sec
  Maximum Time Step           :     7.04 sec
  % of Time in Steady State   :     0.00
  Average Iterations per Step :     3.25
  % of Steps Not Converging   :    13.48
  Time Step Frequencies       :
     30.000 - 13.228 sec      :     0.00 %
     13.228 -  5.833 sec      :     9.18 %
      5.833 -  2.572 sec      :    21.28 %
      2.572 -  1.134 sec      :    19.54 %
      1.134 -  0.500 sec      :    50.00 %
  
  
  ***************************
  Subcatchment Runoff Summary
  ***************************
  
  ------------------------------------------------------------------------------------------------------------------------------
                            Total      Total      Total      Total     Imperv       Perv      Total       Total     Peak  Runoff
                           Precip      Runon       Evap      Infil     Runoff     Runoff     Runoff      Runoff   Runoff   Coeff
  Subcatchment                 mm         mm         mm         mm         mm         mm         mm    10^6 ltr      LPS
  ------------------------------------------------------------------------------------------------------------------------------
  sub60                     69.50       0.00       0.00       1.84      59.95       6.50      66.45        0.87   525.81   0.956
  sub61                     69.50       0.00       0.00       2.67      56.55       9.15      65.70        1.21   729.96   0.945
  sub62                     69.50       0.00       0.00       1.23      62.65       4.33      66.98        1.84  1033.53   0.964
  sub63                     69.50       0.00       0.00       4.92      48.37      15.24      63.61        1.44   827.18   0.915
  sub64                     69.50       0.00       0.00       2.49      57.86       7.94      65.80        1.58   846.92   0.947
  sub65                     69.50       0.00       0.00       2.15      59.21       6.88      66.09        1.82   950.82   0.951
  sub66                     69.50       0.00       0.00       6.07      48.26      14.08      62.35        2.91  1265.43   0.897
  sub67                     69.50       0.00       0.00       1.18      62.69       4.38      67.07        1.25   782.84   0.965
  sub68                     69.50       0.00       0.00       2.21      58.58       7.52      66.10        1.82  1058.81   0.951
  sub69                     69.50       0.00       0.00       1.98      58.96       8.45      67.41        2.50  1265.67   0.970
  sub70                     69.50       0.00       0.00       6.56      45.70      17.07      62.77        1.81   713.27   0.903
  sub71                     69.50       0.00       0.00       1.26      62.61       4.30      66.91        1.75   918.03   0.963
  sub72                     69.50       0.00       0.00       1.12      63.23       3.75      66.97        0.92   448.18   0.964
  
  
  ******************
  Node Depth Summary
  ******************
  
  ---------------------------------------------------------------------------------
                                 Average  Maximum  Maximum  Time of Max    Reported
                                   Depth    Depth      HGL   Occurrence   Max Depth
  Node                 Type       Meters   Meters   Meters  days hr:min      Meters
  ---------------------------------------------------------------------------------
  WS02003060           JUNCTION     0.23     0.38     5.31     0  02:38        0.38
  WS02003066           JUNCTION     0.19     0.30     5.85     0  02:37        0.30
  WS02003067           JUNCTION     0.50     0.70     6.02     0  02:37        0.70
  WS02003069           JUNCTION     0.26     0.43     5.01     0  02:38        0.43
  WS02003072           JUNCTION     0.32     0.50     4.87     0  02:39        0.50
  WS02003073           JUNCTION     0.18     0.30     4.36     0  02:39        0.30
  WS02004401           JUNCTION     0.58     0.85     6.85     0  02:35        0.85
  WS02004402           JUNCTION     0.61     0.88     6.84     0  02:35        0.88
  WS02004403           JUNCTION     0.64     0.89     6.82     0  02:36        0.89
  WS02004404           JUNCTION     0.71     0.96     6.81     0  02:36        0.96
  WS02004405           JUNCTION     0.71     0.96     6.81     0  02:35        0.95
  WS02004406           JUNCTION     0.72     0.96     6.79     0  02:35        0.96
  WS02004407           JUNCTION     0.17     0.30     6.61     0  02:35        0.30
  WS02004409           JUNCTION     0.39     0.67     6.44     0  02:36        0.67
  WS02004410           JUNCTION     0.41     0.68     6.40     0  02:37        0.68
  WS02004411           JUNCTION     0.43     0.69     6.37     0  02:37        0.69
  WS02004412           JUNCTION     0.45     0.70     6.34     0  02:37        0.70
  WS02004413           JUNCTION     0.61     0.86     6.33     0  02:37        0.86
  WS02006109           JUNCTION     0.64     1.26     7.88     0  02:11        1.26
  WS02006110           JUNCTION     0.64     1.33     7.91     0  02:11        1.33
  WS02006111           JUNCTION     0.17     0.29     6.99     0  02:42        0.29
  WS02006112           JUNCTION     0.73     1.08     6.97     0  03:13        1.05
  WS02006113           JUNCTION     0.26     0.46     7.35     0  03:06        0.46
  WS02006115           JUNCTION     0.46     0.75     6.89     0  02:35        0.75
  WS02006116           JUNCTION     0.55     0.83     6.87     0  02:35        0.83
  WS02006228           JUNCTION     0.63     1.28     7.93     0  02:24        1.15
  WS02006229           JUNCTION     0.60     1.33     8.03     0  02:24        1.09
  WS02006230           JUNCTION     0.59     1.58     8.33     0  02:24        1.15
  WS02006231           JUNCTION     0.41     1.34     8.46     0  02:50        0.91
  WS02006232           JUNCTION     0.54     1.91     8.95     0  04:30        1.12
  WS02006234           JUNCTION     0.46     1.92     9.08     0  02:50        1.16
  WS02006235           JUNCTION     0.50     2.00     9.16     0  02:50        1.25
  WS02006238           JUNCTION     0.53     2.06     9.20     0  02:50        1.29
  WS02006239           JUNCTION     0.49     1.93     9.13     0  02:50        1.27
  WS02006240           JUNCTION     0.46     1.75     9.04     0  02:50        1.24
  WS02006242           JUNCTION     0.52     1.55     8.82     0  02:50        1.32
  WS02006243           JUNCTION     0.43     1.40     8.82     0  02:50        1.21
  WS02006245           JUNCTION     0.43     1.31     8.80     0  02:50        1.17
  WS02006247           JUNCTION     0.46     1.26     8.76     0  02:50        1.17
  WS02006248           JUNCTION     0.41     1.10     8.69     0  02:02        1.10
  WS02006249           JUNCTION     0.45     1.09     8.69     0  02:02        1.09
  WS02006251           JUNCTION     0.44     1.42     9.09     0  02:02        1.24
  WS02006252           JUNCTION     0.33     1.50     9.74     0  00:00        0.80
  WS02006256           JUNCTION     0.98     2.35     9.28     0  00:00        2.35
  WSF200               JUNCTION     0.17     0.29     5.52     0  02:37        0.29
  YS02001580           JUNCTION     0.12     1.05     9.59     0  01:52        0.77
  YS02001583           JUNCTION     0.15     1.14     9.64     0  01:52        0.82
  YS02001586           JUNCTION     0.24     1.13     9.30     0  01:52        1.13
  YS02001590           JUNCTION     0.34     1.39     9.25     0  01:52        1.38
  YS02001593           JUNCTION     0.27     1.31     9.18     0  01:52        1.29
  YS02001596           JUNCTION     0.37     1.68     9.10     0  01:52        1.65
  YS02001600           JUNCTION     0.44     1.87     9.00     0  01:52        1.86
  YS02001601           JUNCTION     0.63     2.06     8.90     0  01:51        2.06
  YS02001602           JUNCTION     0.54     1.87     8.77     0  01:51        1.87
  YS02001605           JUNCTION     0.50     1.78     8.68     0  01:51        1.78
  YS02001607           JUNCTION     0.49     1.67     8.52     0  01:51        1.65
  YS02001610           JUNCTION     0.53     1.68     8.48     0  01:51        1.68
  YS02001613           JUNCTION     0.49     1.70     8.54     0  01:52        1.66
  YS02001616           JUNCTION     0.42     1.61     8.52     0  01:52        1.61
  YS02001619           JUNCTION     0.40     1.61     8.54     0  01:52        1.61
  YS02001622           JUNCTION     0.38     1.62     8.52     0  01:51        1.59
  YS02001625           JUNCTION     0.65     1.78     8.38     0  01:52        1.78
  YS02001629           JUNCTION     0.51     1.85     8.40     0  01:52        1.85
  YS02001633           JUNCTION     0.59     2.07     8.53     0  01:59        2.07
  YS02001641           JUNCTION     0.57     1.98     8.41     0  01:57        1.94
  YS02001644           JUNCTION     0.56     1.92     8.35     0  01:57        1.92
  YS02001647           JUNCTION     0.34     1.82     8.43     0  01:58        1.75
  YS02001649           JUNCTION     0.39     2.05     8.44     0  01:59        1.94
  YS02001652           JUNCTION     0.27     2.15     8.75     0  01:57        1.77
  YS02001655           JUNCTION     0.21     2.20     9.05     0  01:58        1.53
  YS02001658           JUNCTION     0.15     2.30     9.44     0  01:58        1.28
  YS02001661           JUNCTION     0.17     1.83     9.23     0  01:59        1.04
  YS02001664           JUNCTION     0.06     0.54     8.47     0  01:59        0.45
  YS02001745           JUNCTION     0.08     0.74     8.25     0  02:01        0.74
  YS02001748           JUNCTION     0.14     2.27     9.35     0  01:58        1.17
  YS02001751           JUNCTION     0.17     2.20     9.08     0  01:58        1.36
  YS02001754           JUNCTION     0.24     2.15     8.76     0  01:58        1.62
  YS02001757           JUNCTION     0.41     2.10     8.36     0  01:58        1.96
  YS02001759           JUNCTION     0.35     2.14     8.50     0  01:58        2.05
  YS02001762           JUNCTION     0.33     2.11     8.51     0  01:58        2.04
  YS02001765           JUNCTION     0.31     2.04     8.49     0  01:58        2.01
  YS02001767           JUNCTION     0.31     2.00     8.49     0  01:58        1.98
  YS02001770           JUNCTION     0.32     1.95     8.44     0  01:58        1.95
  YS02001774           JUNCTION     0.39     2.00     8.43     0  01:58        1.99
  YS02001779           JUNCTION     0.22     1.68     8.37     0  01:56        1.68
  YS02001783           JUNCTION     0.27     1.30     7.45     0  01:56        1.27
  YS02001784           JUNCTION     0.28     1.15     7.22     0  01:56        1.13
  YS02001786           JUNCTION     0.24     0.94     6.97     0  01:56        0.87
  YS02001788           JUNCTION     0.17     0.62     6.60     0  02:00        0.62
  YS02001790           JUNCTION     0.20     0.73     6.37     0  02:01        0.72
  YS02001791           JUNCTION     0.13     0.44     5.91     0  02:02        0.44
  YS02001793           JUNCTION     0.07     0.28     5.12     0  02:11        0.26
  YS02001882           JUNCTION     0.35     1.80     8.52     0  01:54        1.68
  YS02001884           JUNCTION     0.44     1.87     8.49     0  01:54        1.78
  YS02001887           JUNCTION     0.52     1.89     8.42     0  01:54        1.88
  YS02001890           JUNCTION     0.55     1.81     8.32     0  01:54        1.81
  YS02001895           JUNCTION     0.32     1.58     8.32     0  02:08        1.56
  YS02001898           JUNCTION     0.32     1.59     8.33     0  02:08        1.56
  YS02001901           JUNCTION     0.44     1.70     8.31     0  02:08        1.67
  YS02001904           JUNCTION     0.42     1.65     8.28     0  02:08        1.64
  YS02001907           JUNCTION     0.74     1.96     8.25     0  01:56        1.96
  YS02001910           JUNCTION     0.54     2.02     8.52     0  01:56        1.87
  YS02001915           JUNCTION     0.35     1.97     8.69     0  01:56        1.78
  YS02001918           JUNCTION     0.20     1.81     8.88     0  01:56        1.43
  YS02001920           JUNCTION     0.28     2.11     9.12     0  01:56        1.54
  YS02001923           JUNCTION     0.15     2.03     9.29     0  01:56        1.33
  YS02001926           JUNCTION     0.18     1.90     9.35     0  01:56        1.20
  YS02001929           JUNCTION     0.10     1.78     9.47     0  01:56        1.00
  YS02006553           JUNCTION     0.75     2.01     8.29     0  01:56        2.01
  YS02006556           JUNCTION     0.72     2.01     8.33     0  01:56        2.01
  YS02006558           JUNCTION     0.76     2.08     8.34     0  01:59        2.08
  YS02006561           JUNCTION     0.17     1.03     7.69     0  01:56        0.89
  YS02163301           JUNCTION     0.54     1.97     8.48     0  01:59        1.97
  YS02163601           JUNCTION     0.63     2.08     8.48     0  01:57        2.05
  YS02164001           JUNCTION     0.56     1.99     8.45     0  01:57        1.94
  CC-1                 OUTFALL      0.00     0.00     0.00     0  00:00        0.00
  CC-2                 OUTFALL      0.00     0.00     0.00     0  00:00        0.00
  JK-1                 OUTFALL      0.00     0.00     0.00     0  00:00        0.00
  JK-2                 OUTFALL      0.00     0.00     0.00     0  00:00        0.00
  WSC                  OUTFALL      0.18     0.30     0.97     0  02:40        0.30
  CC-storage           STORAGE      0.88     1.63     7.13     0  02:33        1.63
  JK-storage           STORAGE      2.21     4.22     5.02     0  02:11        4.10
  
  
  *******************
  Node Inflow Summary
  *******************
  
  -------------------------------------------------------------------------------------------------
                                  Maximum  Maximum                  Lateral       Total        Flow
                                  Lateral    Total  Time of Max      Inflow      Inflow     Balance
                                   Inflow   Inflow   Occurrence      Volume      Volume       Error
  Node                 Type           LPS      LPS  days hr:min    10^6 ltr    10^6 ltr     Percent
  -------------------------------------------------------------------------------------------------
  WS02003060           JUNCTION     16.53   551.64     0  02:37       0.476        5.23       0.047
  WS02003066           JUNCTION      0.00   535.06     0  02:37           0        4.75       0.031
  WS02003067           JUNCTION      0.00   535.02     0  02:37           0        4.76       0.090
  WS02003069           JUNCTION      0.32   552.04     0  02:38     0.00922        5.23       0.081
  WS02003072           JUNCTION      0.00   551.93     0  02:39           0        5.23       0.140
  WS02003073           JUNCTION      1.82   553.64     0  02:39      0.0524        5.27       0.115
  WS02004401           JUNCTION      0.00   537.26     0  02:29           0        4.86       0.218
  WS02004402           JUNCTION      0.00   536.62     0  02:34           0        4.85       0.220
  WS02004403           JUNCTION      0.00   536.38     0  02:36           0        4.84       0.214
  WS02004404           JUNCTION      0.16   536.26     0  02:34     0.00467        4.83       0.189
  WS02004405           JUNCTION      0.04   536.28     0  02:34      0.0011        4.83       0.255
  WS02004406           JUNCTION      0.00   536.43     0  02:36           0        4.81       0.440
  WS02004407           JUNCTION      0.00   536.11     0  02:35           0        4.79       0.029
  WS02004409           JUNCTION      0.00   536.03     0  02:35           0        4.79       0.063
  WS02004410           JUNCTION      0.00   535.74     0  02:35           0        4.79       0.098
  WS02004411           JUNCTION      0.00   535.41     0  02:36           0        4.78       0.123
  WS02004412           JUNCTION      0.00   535.29     0  02:36           0        4.78       0.163
  WS02004413           JUNCTION      0.00   535.09     0  02:37           0        4.77       0.286
  WS02006109           JUNCTION      1.23   562.97     0  02:24      0.0354        4.91       0.139
  WS02006110           JUNCTION      0.00   563.79     0  02:24           0         4.9       0.150
  WS02006111           JUNCTION      0.00   563.42     0  02:26           0        4.89       0.017
  WS02006112           JUNCTION      0.00   545.18     0  02:42           0        4.89       0.372
  WS02006113           JUNCTION      0.00   570.32     0  02:24           0        4.89       0.046
  WS02006115           JUNCTION      0.00   549.61     0  02:20           0        4.87       0.142
  WS02006116           JUNCTION      0.00   542.35     0  02:28           0        4.87       0.127
  WS02006228           JUNCTION      0.00   560.81     0  02:24           0        4.88       0.064
  WS02006229           JUNCTION      0.00   561.11     0  02:24           0        4.88       0.097
  WS02006230           JUNCTION     10.28   586.88     0  02:50       0.296        4.89       0.090
  WS02006231           JUNCTION      0.00   575.52     0  02:23           0        4.59      -0.006
  WS02006232           JUNCTION      0.00   574.52     0  02:23           0         4.6       0.203
  WS02006234           JUNCTION      0.00   569.08     0  02:23           0        4.59      -0.290
  WS02006235           JUNCTION      0.00   561.81     0  02:10           0        4.66       0.294
  WS02006238           JUNCTION      0.00   425.64     0  02:45           0        3.74      -0.189
  WS02006239           JUNCTION      0.00   424.63     0  02:45           0        3.69      -0.214
  WS02006240           JUNCTION      0.00   420.19     0  02:45           0        3.67      -0.078
  WS02006242           JUNCTION      0.00   420.52     0  02:45           0        3.67       0.000
  WS02006243           JUNCTION      0.00   420.63     0  02:45           0        3.66      -0.054
  WS02006245           JUNCTION      0.00   421.37     0  02:45           0        3.68       0.452
  WS02006247           JUNCTION      0.00   421.20     0  02:45           0        3.68       0.018
  WS02006248           JUNCTION      0.00   421.21     0  02:45           0        3.68       0.015
  WS02006249           JUNCTION      0.00   461.98     0  05:15           0        3.86       0.476
  WS02006251           JUNCTION      0.08   408.02     0  02:02     0.00222        3.86       0.034
  WS02006252           JUNCTION      0.00   400.00     0  00:00           0        3.85      -0.270
  WS02006256           JUNCTION      0.00   300.00     0  00:00           0        1.28      -2.049
  WSF200               JUNCTION      0.00   535.08     0  02:37           0        4.75       0.011
  YS02001580           JUNCTION      0.00    92.13     0  01:52           0     0.00406      -0.300
  YS02001583           JUNCTION      0.00   146.61     0  01:52           0      0.0153      -3.878
  YS02001586           JUNCTION    713.27   713.43     0  02:04        1.81        1.83       0.056
  YS02001590           JUNCTION      0.00   318.20     0  02:25           0        1.43      -0.028
  YS02001593           JUNCTION      0.00   318.04     0  02:21           0        1.43      -0.001
  YS02001596           JUNCTION      0.00   318.10     0  02:08           0        1.43      -0.009
  YS02001600           JUNCTION      0.00   318.08     0  02:20           0        1.43       0.006
  YS02001601           JUNCTION   1265.67  1583.18     0  02:03         2.5        3.93       0.006
  YS02001602           JUNCTION      0.00   508.72     0  01:51           0        2.44       0.018
  YS02001605           JUNCTION      0.00   508.65     0  01:51           0        2.31       0.025
  YS02001607           JUNCTION      0.00   508.82     0  01:51           0        2.31       0.084
  YS02001610           JUNCTION      0.00   688.03     0  02:04           0        2.53       0.078
  YS02001613           JUNCTION      0.00   518.50     0  01:51           0        2.02       0.077
  YS02001616           JUNCTION      0.00   522.11     0  01:51           0        2.02       0.022
  YS02001619           JUNCTION   1265.43  1265.43     0  02:04        2.91        4.71       0.001
  YS02001622           JUNCTION      0.00   930.34     0  01:55           0        4.49       0.001
  YS02001625           JUNCTION      0.00  1311.08     0  02:03           0        4.69       0.181
  YS02001629           JUNCTION      0.00   930.33     0  01:55           0         3.7       0.010
  YS02001633           JUNCTION    951.02  1385.94     0  01:55        1.83         5.3       0.062
  YS02001641           JUNCTION      0.00  1386.11     0  01:55           0        5.07       0.052
  YS02001644           JUNCTION    846.96  1798.31     0  01:55        1.58        6.65       0.044
  YS02001647           JUNCTION      0.00  1798.65     0  01:55           0        6.31       0.005
  YS02001649           JUNCTION      0.00  2041.94     0  01:55           0        7.76      -0.003
  YS02001652           JUNCTION      0.00   836.35     0  02:02           0        1.45      -0.091
  YS02001655           JUNCTION      0.15   836.20     0  02:02     0.00443        1.45       0.004
  YS02001658           JUNCTION      0.00   836.12     0  02:02           0        1.44      -0.016
  YS02001661           JUNCTION      0.00   851.15     0  02:00           0        1.44       0.017
  YS02001664           JUNCTION    827.18   827.18     0  02:02        1.44        1.44      -0.008
  YS02001745           JUNCTION    525.82   525.82     0  02:02       0.874       0.874       0.159
  YS02001748           JUNCTION      0.04   557.12     0  01:58      0.0013       0.873      -0.220
  YS02001751           JUNCTION      0.01   529.93     0  02:01    0.000317       0.878       0.095
  YS02001754           JUNCTION      0.26   529.43     0  02:01     0.00749       0.889      -0.155
  YS02001757           JUNCTION      0.00  3485.28     0  01:59           0        11.6       0.038
  YS02001759           JUNCTION    730.00  1393.70     0  02:01        1.21        2.93      -0.011
  YS02001762           JUNCTION      0.00   774.38     0  01:59           0        1.72      -0.004
  YS02001765           JUNCTION      0.00   774.16     0  01:59           0        1.72      -0.003
  YS02001767           JUNCTION      0.54   774.77     0  01:59      0.0154        1.72      -0.004
  YS02001770           JUNCTION   1033.69  1033.69     0  02:02        1.84        1.88      -0.015
  YS02001774           JUNCTION      0.00   406.54     0  02:02           0       0.203       0.486
  YS02001779           JUNCTION      0.01   405.49     0  02:02    0.000144       0.159      -0.290
  YS02001783           JUNCTION      0.00  1164.07     0  02:00           0        4.39       0.005
  YS02001784           JUNCTION      1.06  1165.34     0  02:00      0.0305        4.42       0.010
  YS02001786           JUNCTION      0.06  1165.28     0  02:00     0.00162        4.42       0.015
  YS02001788           JUNCTION      0.07  1165.15     0  02:00     0.00204        4.42       0.007
  YS02001790           JUNCTION      0.15  1180.15     0  02:00     0.00446        4.43       0.027
  YS02001791           JUNCTION      0.00  1286.96     0  02:01           0        4.43      -0.029
  YS02001793           JUNCTION      0.00  1257.30     0  02:02           0        4.43       0.004
  YS02001882           JUNCTION      0.00    30.88     0  01:53           0      0.0132       5.073
  YS02001884           JUNCTION      0.00    71.65     0  01:53           0      0.0492       5.403
  YS02001887           JUNCTION    783.29   784.75     0  02:01        1.26        1.29       0.342
  YS02001890           JUNCTION      0.00   784.72     0  02:01           0        1.25       0.396
  YS02001895           JUNCTION      0.00   517.94     0  02:04           0        1.16       0.148
  YS02001898           JUNCTION      0.00   517.71     0  02:04           0        1.16       0.018
  YS02001901           JUNCTION      0.00   517.71     0  02:05           0        1.16       0.279
  YS02001904           JUNCTION      0.00   517.81     0  02:05           0        1.16       0.233
  YS02001907           JUNCTION      0.00  1898.14     0  02:02           0        3.91       0.437
  YS02001910           JUNCTION      0.00  1382.40     0  02:02           0        2.75       0.259
  YS02001915           JUNCTION    918.05  1382.47     0  02:02        1.75        2.79       0.054
  YS02001918           JUNCTION      0.00   464.94     0  02:02           0        1.06      -0.004
  YS02001920           JUNCTION      2.87   464.25     0  02:02      0.0827        1.05       0.082
  YS02001923           JUNCTION      0.04   459.65     0  02:02     0.00109        0.95      -0.058
  YS02001926           JUNCTION      0.05   458.92     0  02:02      0.0015       0.931       0.038
  YS02001929           JUNCTION    448.18   448.18     0  02:03       0.921       0.921      -0.043
  YS02006553           JUNCTION      0.00   795.82     0  02:20           0         2.6       0.454
  YS02006556           JUNCTION      0.00   796.29     0  02:20           0        2.61       0.300
  YS02006558           JUNCTION   1059.69  1164.65     0  02:00        1.84        4.42       0.082
  YS02006561           JUNCTION      0.00  1164.00     0  02:00           0        4.39      -0.005
  YS02163301           JUNCTION      0.00   930.44     0  01:55           0         3.7       0.040
  YS02163601           JUNCTION      0.11  1386.09     0  01:55     0.00317        5.07       0.093
  YS02164001           JUNCTION      0.00  1386.25     0  01:55           0        5.07       0.037
  CC-1                 OUTFALL       0.00   683.00     0  00:00           0        4.51       0.000
  CC-2                 OUTFALL       0.00   683.00     0  00:00           0        4.07       0.000
  JK-1                 OUTFALL       0.00  1000.00     0  00:00           0        1.54       0.000
  JK-2                 OUTFALL       0.00  1000.00     0  00:00           0        1.75       0.000
  WSC                  OUTFALL       0.00   553.43     0  02:40           0        5.27       0.000
  CC-storage           STORAGE       0.00  3485.29     0  01:59           0        13.8      -0.225
  JK-storage           STORAGE       0.00  1281.34     0  01:59           0        4.58      -0.376
  
  
  **********************
  Node Surcharge Summary
  **********************
  
  Surcharging occurs when water rises above the top of the highest conduit.
  ---------------------------------------------------------------------
                                               Max. Height   Min. Depth
                                   Hours       Above Crown    Below Rim
  Node                 Type      Surcharged         Meters       Meters
  ---------------------------------------------------------------------
  WS02006109           JUNCTION        1.83          0.444        1.376
  WS02006110           JUNCTION        0.51          0.419        1.431
  WS02006112           JUNCTION        0.55          0.083        1.597
  WS02006228           JUNCTION        1.83          0.446        1.754
  WS02006229           JUNCTION        1.84          0.531        1.919
  WS02006230           JUNCTION        0.52          0.503        1.067
  WS02006231           JUNCTION        0.64          0.630        0.900
  WS02006232           JUNCTION        1.89          1.210        0.270
  WS02006234           JUNCTION        0.95          1.202        0.038
  WS02006235           JUNCTION        1.82          1.290        0.000
  WS02006238           JUNCTION        1.86          1.340        0.090
  WS02006239           JUNCTION        1.82          1.185        0.105
  WS02006240           JUNCTION        1.82          1.035        0.355
  WS02006242           JUNCTION        1.84          0.820        0.000
  WS02006243           JUNCTION        1.82          0.686        0.084
  WS02006245           JUNCTION        1.81          0.602        0.248
  WS02006247           JUNCTION        1.81          0.547        0.213
  WS02006248           JUNCTION        1.80          0.380        0.000
  WS02006249           JUNCTION        1.80          0.390        0.000
  WS02006251           JUNCTION        0.70          0.388        0.792
  WS02006252           JUNCTION        2.10          1.100        0.000
  WS02006256           JUNCTION        6.83          2.050        0.000
  YS02001580           JUNCTION        0.70          0.450        0.000
  YS02001583           JUNCTION        0.71          0.500        0.000
  YS02001586           JUNCTION        0.84          0.510        0.000
  YS02001590           JUNCTION        0.92          0.738        0.012
  YS02001593           JUNCTION        0.93          0.693        0.147
  YS02001596           JUNCTION        1.06          0.947        0.123
  YS02001600           JUNCTION        1.24          1.190        0.000
  YS02001601           JUNCTION        1.56          1.440        0.000
  YS02001602           JUNCTION        1.46          1.270        0.000
  YS02001605           JUNCTION        1.42          1.180        0.000
  YS02001607           JUNCTION        0.90          0.672        0.008
  YS02001610           JUNCTION        0.94          0.680        0.000
  YS02001613           JUNCTION        0.90          0.700        0.000
  YS02001616           JUNCTION        0.85          0.610        0.000
  YS02001619           JUNCTION        0.84          0.610        0.000
  YS02001622           JUNCTION        0.84          0.617        0.003
  YS02001625           JUNCTION        1.04          0.780        0.000
  YS02001629           JUNCTION        0.79          0.470        0.000
  YS02001633           JUNCTION        1.06          1.052        0.008
  YS02001641           JUNCTION        0.99          0.977        0.123
  YS02001644           JUNCTION        0.96          0.920        0.000
  YS02001647           JUNCTION        0.72          0.824        0.076
  YS02001649           JUNCTION        0.85          1.050        0.000
  YS02001652           JUNCTION        0.62          1.123        0.007
  YS02001655           JUNCTION        0.44          1.200        0.000
  YS02001658           JUNCTION        0.22          1.300        0.000
  YS02001661           JUNCTION        0.01          0.758        0.632
  YS02001748           JUNCTION        0.15          1.190        0.000
  YS02001751           JUNCTION        0.31          1.200        0.000
  YS02001754           JUNCTION        0.52          1.103        0.047
  YS02001757           JUNCTION        0.92          1.096        0.114
  YS02001759           JUNCTION        0.81          1.138        0.072
  YS02001762           JUNCTION        0.78          1.106        0.044
  YS02001765           JUNCTION        0.73          1.038        0.062
  YS02001767           JUNCTION        0.69          1.002        0.028
  YS02001770           JUNCTION        0.65          0.920        0.000
  YS02001774           JUNCTION        0.76          1.005        0.045
  YS02001779           JUNCTION        0.52          0.680        0.000
  YS02001783           JUNCTION        0.60          0.504        1.096
  YS02001784           JUNCTION        0.58          0.354        1.136
  YS02001786           JUNCTION        0.46          0.141        1.289
  YS02001882           JUNCTION        0.54          0.803        0.027
  YS02001884           JUNCTION        0.55          0.814        0.056
  YS02001887           JUNCTION        0.59          0.836        0.114
  YS02001890           JUNCTION        0.61          0.760        0.000
  YS02001895           JUNCTION        0.53          0.577        0.173
  YS02001898           JUNCTION        0.52          0.560        0.180
  YS02001901           JUNCTION        0.58          0.698        0.172
  YS02001904           JUNCTION        0.57          0.651        0.199
  YS02001907           JUNCTION        0.85          0.950        0.000
  YS02001910           JUNCTION        0.64          1.018        0.082
  YS02001915           JUNCTION        0.54          0.971        0.029
  YS02001918           JUNCTION        0.45          0.810        0.000
  YS02001920           JUNCTION        0.46          1.113        0.027
  YS02001923           JUNCTION        0.10          0.820        0.000
  YS02001926           JUNCTION        0.14          0.900        0.000
  YS02001929           JUNCTION        0.01          0.780        0.000
  YS02006553           JUNCTION        0.88          1.007        0.183
  YS02006556           JUNCTION        0.74          0.974        0.376
  YS02006558           JUNCTION        0.73          0.975        0.425
  YS02006561           JUNCTION        0.41          0.233        0.917
  YS02163301           JUNCTION        1.04          0.968        0.062
  YS02163601           JUNCTION        1.10          1.080        0.000
  YS02164001           JUNCTION        1.00          0.994        0.106
  
  
  *********************
  Node Flooding Summary
  *********************
  
  Flooding refers to all water that overflows a node, whether it ponds or not.
  --------------------------------------------------------------------------
                                                             Total   Maximum
                                 Maximum   Time of Max       Flood    Ponded
                        Hours       Rate    Occurrence      Volume     Depth
  Node                 Flooded       LPS   days hr:min    10^6 ltr    Meters
  --------------------------------------------------------------------------
  WS02006235              0.01     14.12      0  02:50       0.000     0.000
  WS02006242              0.01     65.89      0  04:30       0.000     0.000
  WS02006248              0.01     34.61      0  02:02       0.000     0.000
  WS02006249              0.67    107.45      0  02:02       0.162     0.000
  WS02006252              0.01    245.63      0  00:00       0.000     0.000
  WS02006256              1.18    293.19      0  00:00       0.374     0.000
  YS02001580              0.01     80.49      0  01:52       0.000     0.000
  YS02001583              0.01     75.32      0  01:52       0.000     0.000
  YS02001586              0.54    396.00      0  02:04       0.379     0.000
  YS02001600              0.01      0.69      0  01:52       0.000     0.000
  YS02001601              0.76   1185.23      0  02:03       1.494     0.000
  YS02001602              0.63     62.06      0  02:08       0.126     0.000
  YS02001605              0.01      6.13      0  01:52       0.000     0.000
  YS02001610              0.54    687.92      0  02:04       0.721     0.000
  YS02001613              0.01     26.66      0  01:52       0.000     0.000
  YS02001616              0.01     24.79      0  01:52       0.000     0.000
  YS02001619              0.01     24.41      0  01:52       0.000     0.000
  YS02001625              0.50   1310.75      0  02:03       1.202     0.000
  YS02001629              0.11    163.19      0  02:00       0.033     0.000
  YS02001644              0.20    768.99      0  02:02       0.324     0.000
  YS02001649              0.01      3.45      0  01:59       0.000     0.000
  YS02001655              0.01     79.18      0  01:58       0.000     0.000
  YS02001658              0.01    268.78      0  01:58       0.000     0.000
  YS02001748              0.01    143.28      0  01:58       0.000     0.000
  YS02001751              0.01      8.68      0  01:58       0.000     0.000
  YS02001770              0.01      9.02      0  01:58       0.000     0.000
  YS02001779              0.17    405.46      0  02:02       0.141     0.000
  YS02001890              0.20    270.77      0  02:01       0.088     0.000
  YS02001907              0.39   1782.93      0  02:02       1.310     0.000
  YS02001918              0.01     84.42      0  01:56       0.001     0.000
  YS02001923              0.01    221.07      0  01:56       0.000     0.000
  YS02001926              0.01    200.32      0  01:56       0.000     0.000
  YS02001929              0.01    336.13      0  01:56       0.002     0.000
  YS02163601              0.01      2.32      0  01:57       0.000     0.000
  
  
  **********************
  Storage Volume Summary
  **********************
  
  ------------------------------------------------------------------------------------------------
                         Average    Avg   Evap  Exfil     Maximum    Max    Time of Max    Maximum
                          Volume   Pcnt   Pcnt   Pcnt      Volume   Pcnt     Occurrence    Outflow
  Storage Unit           1000 m³   Full   Loss   Loss     1000 m³   Full    days hr:min        LPS
  ------------------------------------------------------------------------------------------------
  CC-storage               2.461   38.4    0.0    0.0       4.554   71.0       0  02:33    1783.53
  JK-storage               0.111   38.2    0.0    0.0       0.212   72.8       0  02:11    2300.00
  
  
  ***********************
  Outfall Loading Summary
  ***********************
  
  -----------------------------------------------------------
                         Flow       Avg       Max       Total
                         Freq      Flow      Flow      Volume
  Outfall Node           Pcnt       LPS       LPS    10^6 ltr
  -----------------------------------------------------------
  CC-1                  30.83    683.00    683.00       4.514
  CC-2                  26.42    683.00    683.00       4.068
  JK-1                   8.97   1000.00   1000.00       1.535
  JK-2                   8.29   1000.00   1000.00       1.746
  WSC                   99.96    248.82    553.43       5.267
  -----------------------------------------------------------
  System                34.89   3614.82   3398.48      17.130
  
  
  ********************
  Link Flow Summary
  ********************
  
  -----------------------------------------------------------------------------
                                 Maximum  Time of Max   Maximum    Max/    Max/
                                  |Flow|   Occurrence   |Veloc|    Full    Full
  Link                 Type          LPS  days hr:min     m/sec    Flow   Depth
  -----------------------------------------------------------------------------
  1                    CONDUIT    553.43     0  02:40      2.82    0.19    0.30
  WS02003060WS02003069 CONDUIT    551.72     0  02:38      1.64    0.22    0.34
  WS02003066WSF200     CONDUIT    535.08     0  02:37      2.85    0.09    0.22
  WS02003067WS02003066 CONDUIT    535.06     0  02:37      1.21    0.17    0.42
  WS02003069WS02003072 CONDUIT    551.93     0  02:39      1.37    0.27    0.39
  WS02003072WS02003073 CONDUIT    551.82     0  02:39      1.43    1.19    0.37
  WS02004401WS02004402 CONDUIT    536.62     0  02:34      0.98    0.64    0.86
  WS02004402WS02004403 CONDUIT    536.38     0  02:36      0.97    0.77    0.88
  WS02004403WS02004404 CONDUIT    536.10     0  02:34      0.92    0.39    0.93
  WS02004404WS02004405 CONDUIT    536.25     0  02:34      1.08    5.25    0.96
  WS02004405WS02004406 CONDUIT    536.43     0  02:36      0.99    1.06    0.96
  WS02004406WS02004407 CONDUIT    536.11     0  02:35      1.04    0.24    0.63
  WS02004407WS02004409 CONDUIT    536.03     0  02:35      1.49    0.19    0.48
  WS02004409WS02004410 CONDUIT    535.74     0  02:35      0.97    0.69    0.67
  WS02004410WS02004411 CONDUIT    535.41     0  02:36      0.93    0.73    0.69
  WS02004411WS02004412 CONDUIT    535.29     0  02:36      0.92    0.76    0.69
  WS02004412WS02004413 CONDUIT    535.09     0  02:37      0.82    0.36    0.78
  WS02004413WS02003067 CONDUIT    535.02     0  02:37      1.11    0.23    0.59
  WS02006109WS02006110 CONDUIT    563.79     0  02:24      1.12    1.08    1.00
  WS02006110WS02006113 CONDUIT    570.32     0  02:24      1.38    0.52    0.79
  WS02006111WS02006112 CONDUIT    545.18     0  02:42      1.81    0.26    0.67
  WS02006112WS02006115 CONDUIT    549.61     0  02:20      0.78    0.32    0.87
  WS02006113WS02006111 CONDUIT    563.42     0  02:26      2.47    0.68    0.46
  WS02006115WS02006116 CONDUIT    542.35     0  02:28      0.97    0.70    0.76
  WS02006116WS02004401 CONDUIT    537.26     0  02:29      0.98    0.74    0.84
  WS02006228WS02006109 CONDUIT    561.74     0  02:24      1.12    2.45    1.00
  WS02006229WS02006228 CONDUIT    560.81     0  02:24      1.14    1.86    1.00
  WS02006230WS02006229 CONDUIT    561.11     0  02:24      1.46   12.49    1.00
  WS02006231WS02006230 CONDUIT    576.60     0  02:50      1.56    8.75    1.00
  WS02006232WS02006231 CONDUIT    575.52     0  02:23      1.51    1.21    1.00
  WS02006234WS02006232 CONDUIT    574.52     0  02:23      1.49    1.16    1.00
  WS02006235WS02006234 CONDUIT    569.08     0  02:23      1.48    6.00    1.00
  WS02006238WS02006235 CONDUIT    425.67     0  02:45      1.45    0.95    1.00
  WS02006239WS02006238 CONDUIT    425.64     0  02:45      1.11    1.36    1.00
  WS02006240WS02006239 CONDUIT    424.63     0  02:45      1.24    1.34    1.00
  WS02006242WS02006240 CONDUIT    420.19     0  02:45      1.13    1.67    1.00
  WS02006243WS02006242 CONDUIT    420.52     0  02:45      1.41    0.90    1.00
  WS02006245WS02006243 CONDUIT    420.63     0  02:45      1.45    1.24    1.00
  WS02006247WS02006245 CONDUIT    421.37     0  02:45      1.43    3.34    1.00
  WS02006248WS02006247 CONDUIT    421.20     0  02:45      1.44    0.92    1.00
  WS02006249WS02006248 CONDUIT    421.21     0  02:45      1.38    2.31    1.00
  WS02006251WS02006249 CONDUIT    461.98     0  05:15      1.99    1.33    1.00
  WS02006252WS02006251 CONDUIT    407.94     0  02:02     24.61    1.50    1.00
  WS02006256WS02006235 CONDUIT    288.91     0  00:00      4.23    3.06    1.00
  WSF200WS02003060     CONDUIT    535.12     0  02:37      2.06    0.12    0.28
  YS02001580YS02001583 CONDUIT     92.13     0  01:52      0.61    0.36    1.00
  YS02001583YS02001586 CONDUIT    146.61     0  01:52      0.62    0.22    1.00
  YS02001586YS02001590 CONDUIT    318.20     0  02:25      1.25    0.56    1.00
  YS02001590YS02001593 CONDUIT    318.04     0  02:21      1.12    2.00    1.00
  YS02001593YS02001596 CONDUIT    318.10     0  02:08      1.74    0.50    1.00
  YS02001596YS02001600 CONDUIT    318.08     0  02:20      1.24    0.62    1.00
  YS02001600YS02001601 CONDUIT    318.32     0  02:21      1.13    0.55    1.00
  YS02001601YS02001602 CONDUIT    508.72     0  01:51      1.80    1.84    1.00
  YS02001602YS02001605 CONDUIT    508.65     0  01:51      1.80   10.76    1.00
  YS02001605YS02001607 CONDUIT    508.82     0  01:51      1.80    2.79    1.00
  YS02001607YS02001610 CONDUIT    515.06     0  01:51      0.66    0.49    1.00
  YS02001610YS02001613 CONDUIT    518.50     0  01:51      0.66    0.60    1.00
  YS02001613YS02001616 CONDUIT    522.11     0  01:51      0.67    0.45    1.00
  YS02001616YS02001619 CONDUIT    510.58     0  01:51      0.67    0.89    1.00
  YS02001619YS02001622 CONDUIT    930.34     0  01:55      1.18    1.37    1.00
  YS02001622YS02001625 CONDUIT    930.37     0  01:55      1.18    0.50    1.00
  YS02001625YS02001629 CONDUIT    930.33     0  01:55      1.18    0.44    1.00
  YS02001629YS02163301 CONDUIT    930.44     0  01:55      1.18    1.15    1.00
  YS02001633YS02163601 CONDUIT   1385.98     0  01:55      1.76    1.45    1.00
  YS02001641YS02001644 CONDUIT   1385.76     0  01:55      1.76    4.48    1.00
  YS02001644YS02001647 CONDUIT   1798.65     0  01:55      2.29    1.06    1.00
  YS02001647YS02001649 CONDUIT   1813.90     0  01:55      2.34    0.96    1.00
  YS02001649YS02001757 CONDUIT   2018.86     0  01:55      2.58    1.23    1.00
  YS02001652YS02001649 CONDUIT    835.90     0  02:02      1.06    0.41    1.00
  YS02001655YS02001652 CONDUIT    836.35     0  02:02      1.33    0.41    1.00
  YS02001658YS02001655 CONDUIT    836.05     0  02:02      1.88    0.35    1.00
  YS02001661YS02001658 CONDUIT    836.12     0  02:02      2.31    0.33    1.00
  YS02001664YS02001661 CONDUIT    851.15     0  02:00      2.31    0.27    0.76
  YS02001745YS02001748 CONDUIT    557.08     0  01:58      2.18    0.21    0.87
  YS02001748YS02001751 CONDUIT    529.92     0  02:01      1.70    0.27    1.00
  YS02001751YS02001754 CONDUIT    529.17     0  02:01      1.44    0.26    1.00
  YS02001754YS02001757 CONDUIT    529.42     0  02:01      0.67    0.21    1.00
  YS02001757CaochengTiaoxuchi CONDUIT   3485.29     0  01:59      4.45    1.51    1.00
  YS02001759YS02001757 CONDUIT   1393.51     0  02:01      1.77    0.99    1.00
  YS02001762YS02001759 CONDUIT    774.54     0  01:59      0.99    0.89    1.00
  YS02001765YS02001762 CONDUIT    774.38     0  01:59      0.99    0.73    1.00
  YS02001767YS02001765 CONDUIT    774.16     0  01:59      0.99    0.97    1.00
  YS02001770YS02001767 CONDUIT    774.23     0  01:59      0.99    3.07    1.00
  YS02001774YS02001770 CONDUIT    406.54     0  02:02      0.52    0.26    1.00
  YS02001779YS02001774 CONDUIT    405.48     0  02:02      0.52    0.20    1.00
  YS02001783YS02001784 CONDUIT   1164.28     0  02:00      2.32    1.60    1.00
  YS02001784YS02001785 CONDUIT   1165.23     0  02:00      2.32    2.71    1.00
  YS02001786YS02001788 CONDUIT   1165.08     0  02:00      2.49    2.24    0.89
  YS02001788YS02001790 CONDUIT   1180.00     0  02:00      2.72    0.87    0.84
  YS02001790YS02001791 CONDUIT   1286.96     0  02:01      3.44    1.40    0.71
  YS02001791YS02001793 CONDUIT   1257.30     0  02:02      6.80    0.54    0.44
  YS02001793JiankangQianchi CONDUIT   1281.34     0  01:59      2.56    0.10    0.64
  YS02001882YS02001884 CONDUIT     30.88     0  01:53      0.15    0.04    1.00
  YS02001884YS02001887 CONDUIT     71.65     0  01:53      0.10    0.10    1.00
  YS02001887YS02001890 CONDUIT    784.72     0  02:01      1.00    1.34    1.00
  YS02001890YS02001895 CONDUIT    517.94     0  02:04      0.66    0.24    1.00
  YS02001895YS02001898 CONDUIT    517.71     0  02:04      0.66    0.90    1.00
  YS02001898YS02001901 CONDUIT    517.71     0  02:05      0.66    0.33    1.00
  YS02001901YS02001904 CONDUIT    517.81     0  02:05      0.66    0.80    1.00
  YS02001904YS02001907 CONDUIT    517.74     0  02:05      0.66    0.18    1.00
  YS02001907YS02006553 CONDUIT    795.82     0  02:20      0.88    0.94    1.00
  YS02001910YS02001907 CONDUIT   1381.99     0  02:02      1.76    0.78    1.00
  YS02001915YS02001910 CONDUIT   1382.40     0  02:02      1.76    0.69    1.00
  YS02001918YS02001915 CONDUIT    464.78     0  02:02      0.59    0.26    1.00
  YS02001920YS02001918 CONDUIT    464.94     0  02:02      0.64    0.45    1.00
  YS02001923YS02001920 CONDUIT    461.38     0  02:02      0.69    0.21    1.00
  YS02001926YS02001923 CONDUIT    459.61     0  02:02      0.95    0.66    1.00
  YS02001929YS02001926 CONDUIT    458.87     0  02:02      1.11    0.22    1.00
  YS02006553YS02006556 CONDUIT    796.29     0  02:20      1.01    0.68    1.00
  YS02006556YS02006558 CONDUIT    797.81     0  02:21      1.02    0.63    1.00
  YS02006558YS02006561 CONDUIT   1164.00     0  02:00      4.12    2.57    1.00
  YS02006561YS02001783 CONDUIT   1164.07     0  02:00      2.32    0.60    1.00
  YS02163301YS02001633 CONDUIT    930.58     0  01:55      1.18    0.87    1.00
  YS02163601YS02164001 CONDUIT   1386.25     0  01:55      1.77    1.23    1.00
  YS02164001YS02001641 CONDUIT   1386.11     0  01:55      1.76    1.89    1.00
  CC-R1                PUMP       683.00     0  00:00              1.00
  CC-R2                PUMP       683.00     0  00:00              1.00
  CC-S1                PUMP       200.00     0  00:00              1.00
  CC-S2                PUMP       200.00     0  00:00              1.00
  JK-R1                PUMP      1000.00     0  00:00              1.00
  JK-R2                PUMP      1000.00     0  00:00              1.00
  JK-S                 PUMP       300.00     0  00:00              1.00
  
  
  ***************************
  Flow Classification Summary
  ***************************
  
  -------------------------------------------------------------------------------------
                      Adjusted    ---------- Fraction of Time in Flow Class ---------- 
                       /Actual         Up    Down  Sub   Sup   Up    Down  Norm  Inlet 
  Conduit               Length    Dry  Dry   Dry   Crit  Crit  Crit  Crit  Ltd   Ctrl  
  -------------------------------------------------------------------------------------
  1                       1.00   0.00  0.00  0.00  0.00  1.00  0.00  0.00  0.43  0.00
  WS02003060WS02003069    1.00   0.00  0.00  0.00  0.97  0.03  0.00  0.00  0.68  0.00
  WS02003066WSF200        1.00   0.13  0.00  0.00  0.00  0.87  0.00  0.00  0.79  0.00
  WS02003067WS02003066    1.00   0.10  0.02  0.00  0.88  0.00  0.00  0.00  0.00  0.00
  WS02003069WS02003072    1.00   0.00  0.00  0.00  0.99  0.01  0.00  0.00  0.74  0.00
  WS02003072WS02003073    1.00   0.00  0.00  0.00  0.00  0.00  0.00  1.00  0.00  0.00
  WS02004401WS02004402    1.00   0.02  0.00  0.00  0.98  0.00  0.00  0.00  0.00  0.00
  WS02004402WS02004403    1.00   0.02  0.00  0.00  0.97  0.00  0.00  0.00  0.00  0.00
  WS02004403WS02004404    1.00   0.00  0.03  0.00  0.97  0.00  0.00  0.00  0.00  0.00
  WS02004404WS02004405    1.00   0.00  0.00  0.00  1.00  0.00  0.00  0.00  0.01  0.00
  WS02004405WS02004406    1.00   0.00  0.00  0.00  1.00  0.00  0.00  0.00  0.00  0.00
  WS02004406WS02004407    1.00   0.00  0.05  0.00  0.95  0.00  0.00  0.00  0.00  0.00
  WS02004407WS02004409    1.00   0.05  0.00  0.00  0.94  0.01  0.00  0.00  0.94  0.00
  WS02004409WS02004410    1.00   0.05  0.00  0.00  0.95  0.00  0.00  0.00  0.03  0.00
  WS02004410WS02004411    1.00   0.05  0.00  0.00  0.95  0.00  0.00  0.00  0.01  0.00
  WS02004411WS02004412    1.00   0.05  0.00  0.00  0.95  0.00  0.00  0.00  0.00  0.00
  WS02004412WS02004413    1.00   0.05  0.00  0.00  0.94  0.00  0.00  0.00  0.01  0.00
  WS02004413WS02003067    1.00   0.06  0.04  0.00  0.00  0.00  0.90  0.00  0.00  0.00
  WS02006109WS02006110    1.00   0.00  0.01  0.00  0.98  0.00  0.01  0.00  0.00  0.00
  WS02006110WS02006113    1.00   0.01  0.01  0.00  0.98  0.00  0.00  0.00  0.00  0.00
  WS02006111WS02006112    1.00   0.02  0.00  0.00  0.98  0.00  0.00  0.00  0.98  0.00
  WS02006112WS02006115    1.00   0.02  0.00  0.00  0.97  0.00  0.00  0.00  0.00  0.00
  WS02006113WS02006111    1.00   0.02  0.00  0.00  0.00  0.98  0.00  0.00  0.14  0.00
  WS02006115WS02006116    1.00   0.02  0.00  0.00  0.97  0.00  0.00  0.01  0.00  0.00
  WS02006116WS02004401    1.00   0.02  0.00  0.00  0.98  0.00  0.00  0.00  0.00  0.00
  WS02006228WS02006109    1.00   0.00  0.00  0.00  1.00  0.00  0.00  0.00  0.01  0.00
  WS02006229WS02006228    1.00   0.00  0.00  0.00  0.99  0.00  0.00  0.01  0.00  0.00
  WS02006230WS02006229    1.00   0.00  0.00  0.00  0.99  0.00  0.00  0.01  0.01  0.00
  WS02006231WS02006230    1.00   0.00  0.00  0.00  0.26  0.00  0.74  0.00  0.00  0.00
  WS02006232WS02006231    1.00   0.00  0.00  0.00  0.99  0.00  0.01  0.00  0.00  0.00
  WS02006234WS02006232    1.00   0.00  0.00  0.00  1.00  0.00  0.00  0.00  0.06  0.00
  WS02006235WS02006234    1.00   0.00  0.00  0.00  0.90  0.00  0.10  0.00  0.00  0.00
  WS02006238WS02006235    1.00   0.00  0.00  0.00  1.00  0.00  0.00  0.00  0.00  0.00
  WS02006239WS02006238    1.00   0.00  0.00  0.00  1.00  0.00  0.00  0.00  0.15  0.00
  WS02006240WS02006239    1.00   0.00  0.00  0.00  0.69  0.00  0.00  0.31  0.05  0.00
  WS02006242WS02006240    1.00   0.00  0.00  0.00  0.98  0.00  0.02  0.00  0.00  0.00
  WS02006243WS02006242    1.00   0.00  0.00  0.00  0.99  0.00  0.00  0.01  0.50  0.00
  WS02006245WS02006243    1.00   0.00  0.00  0.00  0.80  0.00  0.00  0.20  0.01  0.00
  WS02006247WS02006245    1.00   0.00  0.00  0.00  0.96  0.00  0.00  0.04  0.00  0.00
  WS02006248WS02006247    1.00   0.00  0.00  0.00  0.98  0.00  0.00  0.02  0.42  0.00
  WS02006249WS02006248    1.00   0.00  0.00  0.00  0.50  0.00  0.50  0.00  0.00  0.00
  WS02006251WS02006249    1.00   0.00  0.00  0.00  0.99  0.01  0.00  0.00  0.52  0.00
  WS02006252WS02006251    1.00   0.00  0.46  0.00  0.09  0.00  0.46  0.00  0.00  0.00
  WS02006256WS02006235    1.00   0.00  0.00  0.00  0.98  0.02  0.00  0.00  0.00  0.00
  WSF200WS02003060        1.00   0.00  0.13  0.00  0.36  0.52  0.00  0.00  0.51  0.00
  YS02001580YS02001583    1.00   0.23  0.56  0.00  0.21  0.00  0.00  0.00  0.66  0.00
  YS02001583YS02001586    1.00   0.41  0.32  0.00  0.26  0.00  0.00  0.00  0.66  0.00
  YS02001586YS02001590    1.00   0.13  0.00  0.00  0.44  0.04  0.00  0.39  0.36  0.00
  YS02001590YS02001593    1.00   0.13  0.01  0.00  0.13  0.00  0.73  0.00  0.00  0.00
  YS02001593YS02001596    1.00   0.13  0.00  0.00  0.15  0.01  0.00  0.70  0.02  0.00
  YS02001596YS02001600    1.00   0.13  0.00  0.00  0.21  0.01  0.00  0.64  0.04  0.00
  YS02001600YS02001601    1.00   0.13  0.01  0.00  0.86  0.00  0.00  0.00  0.59  0.00
  YS02001601YS02001602    1.00   0.13  0.01  0.00  0.87  0.00  0.00  0.00  0.00  0.00
  YS02001602YS02001605    1.00   0.13  0.00  0.00  0.87  0.00  0.00  0.00  0.00  0.00
  YS02001605YS02001607    1.00   0.14  0.00  0.00  0.86  0.00  0.00  0.00  0.00  0.00
  YS02001607YS02001610    1.00   0.13  0.01  0.00  0.86  0.00  0.00  0.00  0.01  0.00
  YS02001610YS02001613    1.00   0.13  0.00  0.00  0.87  0.00  0.00  0.00  0.00  0.00
  YS02001613YS02001616    1.00   0.13  0.00  0.00  0.87  0.00  0.00  0.00  0.00  0.00
  YS02001616YS02001619    1.00   0.13  0.00  0.00  0.87  0.00  0.00  0.00  0.00  0.00
  YS02001619YS02001622    1.00   0.13  0.00  0.00  0.87  0.00  0.00  0.00  0.28  0.00
  YS02001622YS02001625    1.00   0.13  0.00  0.00  0.87  0.00  0.00  0.00  0.03  0.00
  YS02001625YS02001629    1.00   0.13  0.04  0.00  0.18  0.00  0.65  0.00  0.00  0.00
  YS02001629YS02163301    1.00   0.15  0.01  0.00  0.84  0.00  0.00  0.00  0.00  0.00
  YS02001633YS02163601    1.00   0.00  0.01  0.00  0.99  0.00  0.00  0.00  0.14  0.00
  YS02001641YS02001644    1.00   0.00  0.01  0.00  0.99  0.00  0.00  0.00  0.00  0.00
  YS02001644YS02001647    1.00   0.00  0.17  0.00  0.83  0.00  0.00  0.00  0.00  0.00
  YS02001647YS02001649    1.00   0.00  0.16  0.00  0.56  0.27  0.00  0.00  0.56  0.00
  YS02001649YS02001757    1.00   0.00  0.00  0.00  0.83  0.16  0.00  0.00  0.40  0.00
  YS02001652YS02001649    1.00   0.00  0.00  0.00  0.97  0.03  0.00  0.00  0.73  0.00
  YS02001655YS02001652    1.00   0.00  0.00  0.00  0.20  0.01  0.00  0.79  0.05  0.00
  YS02001658YS02001655    1.00   0.00  0.14  0.00  0.67  0.19  0.00  0.00  0.67  0.00
  YS02001661YS02001658    1.00   0.14  0.00  0.00  0.51  0.36  0.00  0.00  0.68  0.00
  YS02001664YS02001661    1.00   0.13  0.00  0.00  0.75  0.12  0.00  0.00  0.85  0.00
  YS02001745YS02001748    1.00   0.00  0.00  0.00  0.11  0.01  0.00  0.89  0.05  0.00
  YS02001748YS02001751    1.00   0.00  0.00  0.00  0.83  0.17  0.00  0.00  0.76  0.00
  YS02001751YS02001754    1.00   0.00  0.00  0.00  0.18  0.00  0.00  0.81  0.04  0.00
  YS02001754YS02001757    1.00   0.00  0.00  0.00  1.00  0.00  0.00  0.00  0.80  0.00
  YS02001757CaochengTiaoxuchi    1.00   0.00  0.00  0.00  0.96  0.04  0.00  0.00  0.64  0.00
  YS02001759YS02001757    1.00   0.00  0.00  0.00  0.99  0.01  0.00  0.00  0.51  0.00
  YS02001762YS02001759    1.00   0.00  0.00  0.00  1.00  0.00  0.00  0.00  0.05  0.00
  YS02001765YS02001762    1.00   0.00  0.00  0.00  1.00  0.00  0.00  0.00  0.66  0.00
  YS02001767YS02001765    1.00   0.00  0.00  0.00  1.00  0.00  0.00  0.00  0.01  0.00
  YS02001770YS02001767    1.00   0.00  0.00  0.00  1.00  0.00  0.00  0.00  0.00  0.00
  YS02001774YS02001770    1.00   0.00  0.13  0.00  0.70  0.00  0.16  0.00  0.03  0.00
  YS02001779YS02001774    1.00   0.00  0.00  0.00  1.00  0.00  0.00  0.00  0.75  0.00
  YS02001783YS02001784    1.00   0.00  0.17  0.00  0.83  0.00  0.00  0.00  0.55  0.00
  YS02001784YS02001785    1.00   0.00  0.00  0.00  1.00  0.00  0.00  0.00  0.16  0.00
  YS02001786YS02001788    1.00   0.00  0.00  0.00  0.79  0.21  0.00  0.00  0.00  0.00
  YS02001788YS02001790    1.00   0.00  0.00  0.00  0.21  0.79  0.00  0.00  0.79  0.00
  YS02001790YS02001791    1.00   0.00  0.00  0.00  0.01  0.99  0.00  0.00  0.16  0.00
  YS02001791YS02001793    1.00   0.00  0.00  0.00  0.00  1.00  0.00  0.00  0.01  0.00
  YS02001793JiankangQianchi    1.00   0.00  0.00  0.00  0.97  0.03  0.00  0.00  0.95  0.00
  YS02001882YS02001884    1.00   0.15  0.01  0.00  0.85  0.00  0.00  0.00  0.00  0.00
  YS02001884YS02001887    1.00   0.06  0.05  0.00  0.89  0.00  0.00  0.00  0.00  0.00
  YS02001887YS02001890    1.00   0.00  0.00  0.00  0.97  0.00  0.03  0.00  0.00  0.00
  YS02001890YS02001895    1.00   0.00  0.16  0.00  0.84  0.00  0.00  0.00  0.00  0.00
  YS02001895YS02001898    1.00   0.16  0.00  0.00  0.82  0.00  0.02  0.00  0.00  0.00
  YS02001898YS02001901    1.00   0.16  0.00  0.00  0.84  0.00  0.00  0.00  0.01  0.00
  YS02001901YS02001904    1.00   0.16  0.00  0.00  0.84  0.00  0.00  0.00  0.00  0.00
  YS02001904YS02001907    1.00   0.00  0.16  0.00  0.84  0.00  0.00  0.00  0.00  0.00
  YS02001907YS02006553    1.00   0.00  0.02  0.00  0.98  0.00  0.00  0.00  0.00  0.00
  YS02001910YS02001907    1.00   0.00  0.00  0.00  0.97  0.00  0.00  0.03  0.12  0.00
  YS02001915YS02001910    1.00   0.00  0.00  0.00  0.97  0.03  0.00  0.00  0.14  0.00
  YS02001918YS02001915    1.00   0.00  0.01  0.00  0.98  0.02  0.00  0.00  0.73  0.00
  YS02001920YS02001918    1.00   0.00  0.01  0.00  0.99  0.00  0.00  0.00  0.00  0.00
  YS02001923YS02001920    1.00   0.00  0.00  0.00  1.00  0.00  0.00  0.00  0.91  0.00
  YS02001926YS02001923    1.00   0.00  0.07  0.00  0.07  0.00  0.86  0.00  0.00  0.00
  YS02001929YS02001926    1.00   0.00  0.13  0.00  0.87  0.00  0.00  0.00  0.81  0.00
  YS02006553YS02006556    1.00   0.01  0.00  0.00  0.99  0.00  0.00  0.00  0.03  0.00
  YS02006556YS02006558    1.00   0.00  0.00  0.00  1.00  0.00  0.00  0.00  0.00  0.00
  YS02006558YS02006561    1.00   0.17  0.00  0.00  0.06  0.76  0.00  0.00  0.18  0.00
  YS02006561YS02001783    1.00   0.17  0.00  0.00  0.10  0.73  0.00  0.00  0.67  0.00
  YS02163301YS02001633    1.00   0.00  0.15  0.00  0.85  0.00  0.00  0.00  0.00  0.00
  YS02163601YS02164001    1.00   0.00  0.08  0.00  0.92  0.00  0.00  0.00  0.00  0.00
  YS02164001YS02001641    1.00   0.01  0.07  0.00  0.92  0.00  0.00  0.00  0.05  0.00
  
  
  *************************
  Conduit Surcharge Summary
  *************************
  
  ----------------------------------------------------------------------------
                                                           Hours        Hours 
                         --------- Hours Full --------   Above Full   Capacity
  Conduit                Both Ends  Upstream  Dnstream   Normal Flow   Limited
  ----------------------------------------------------------------------------
  WS02003072WS02003073        0.01      0.01      0.01      1.03         0.01
  WS02004404WS02004405        0.01      0.01      0.01      3.48         0.01
  WS02004405WS02004406        0.01      0.01      0.01      0.46         0.01
  WS02006109WS02006110        0.51      0.51      1.90      0.63         0.01
  WS02006110WS02006113        0.01      0.01      1.87      0.01         0.01
  WS02006111WS02006112        0.01      0.01      2.18      0.01         0.01
  WS02006112WS02006115        0.01      0.01      0.55      0.01         0.01
  WS02006228WS02006109        1.83      1.90      1.83      2.63         1.83
  WS02006229WS02006228        1.83      1.84      1.83      2.15         1.82
  WS02006230WS02006229        1.99      2.10      1.99      4.05         1.99
  WS02006231WS02006230        0.52      0.52      0.69      3.67         0.01
  WS02006232WS02006231        0.64      0.64      1.89      0.70         0.01
  WS02006234WS02006232        1.79      1.79      1.89      0.69         0.68
  WS02006235WS02006234        0.94      0.95      1.81      3.48         0.02
  WS02006238WS02006235        1.84      1.84      1.89      0.01         0.01
  WS02006239WS02006238        1.83      1.84      1.86      1.91         1.70
  WS02006240WS02006239        1.81      1.83      1.82      1.91         1.62
  WS02006242WS02006240        1.82      1.82      1.87      2.08         0.01
  WS02006243WS02006242        1.82      1.82      1.84      0.01         0.04
  WS02006245WS02006243        1.81      1.81      1.82      1.35         1.30
  WS02006247WS02006245        1.81      1.81      1.81      3.19         1.80
  WS02006248WS02006247        1.80      1.80      1.81      0.01         0.04
  WS02006249WS02006248        1.80      1.80      1.80      3.13         0.01
  WS02006251WS02006249        1.80      1.80      1.80      2.00         1.75
  WS02006252WS02006251        2.08      2.08      2.09      2.08         0.01
  WS02006256WS02006235        3.50      3.55      6.75      1.22         0.01
  YS02001580YS02001583        0.70      0.70      0.75      0.01         0.01
  YS02001583YS02001586        0.71      0.71      0.84      0.01         0.01
  YS02001586YS02001590        0.85      0.85      0.92      0.01         0.01
  YS02001590YS02001593        0.93      0.93      0.95      0.98         0.01
  YS02001593YS02001596        0.94      0.94      1.06      0.01         0.01
  YS02001596YS02001600        1.11      1.11      1.24      0.01         0.01
  YS02001600YS02001601        1.31      1.31      1.56      0.01         0.01
  YS02001601YS02001602        1.47      1.47      1.60      1.25         0.01
  YS02001602YS02001605        1.42      1.42      1.47      2.36         0.01
  YS02001605YS02001607        1.38      1.42      1.38      1.53         1.38
  YS02001607YS02001610        0.90      0.90      0.94      0.01         0.01
  YS02001610YS02001613        0.90      0.90      0.94      0.01         0.01
  YS02001613YS02001616        0.85      0.85      0.90      0.01         0.01
  YS02001616YS02001619        0.84      0.84      0.85      0.01         0.02
  YS02001619YS02001622        0.84      0.84      0.84      0.94         0.81
  YS02001622YS02001625        0.84      0.84      1.04      0.01         0.01
  YS02001625YS02001629        0.79      0.79      1.04      0.01         0.01
  YS02001629YS02163301        1.03      1.03      1.04      0.19         0.20
  YS02001633YS02163601        1.06      1.06      1.10      0.43         0.41
  YS02001641YS02001644        0.96      0.99      0.96      1.63         0.95
  YS02001644YS02001647        0.72      0.72      0.96      0.04         0.01
  YS02001647YS02001649        0.72      0.72      0.85      0.01         0.01
  YS02001649YS02001757        0.85      0.85      0.92      0.12         0.07
  YS02001652YS02001649        0.65      0.65      0.85      0.01         0.01
  YS02001655YS02001652        0.44      0.44      0.62      0.01         0.01
  YS02001658YS02001655        0.22      0.22      0.44      0.01         0.01
  YS02001661YS02001658        0.01      0.01      0.22      0.01         0.01
  YS02001664YS02001661        0.01      0.01      0.07      0.01         0.01
  YS02001745YS02001748        0.01      0.01      0.15      0.01         0.01
  YS02001748YS02001751        0.20      0.20      0.31      0.01         0.01
  YS02001751YS02001754        0.31      0.31      0.52      0.01         0.01
  YS02001754YS02001757        0.56      0.56      0.92      0.01         0.01
  YS02001757CaochengTiaoxuchi        0.85      0.92      1.83      0.43         0.32
  YS02001759YS02001757        0.81      0.81      0.92      0.01         0.03
  YS02001762YS02001759        0.78      0.78      0.81      0.01         0.02
  YS02001765YS02001762        0.73      0.73      0.78      0.01         0.01
  YS02001767YS02001765        0.69      0.69      0.73      0.01         0.03
  YS02001770YS02001767        0.69      0.69      0.69      0.61         0.49
  YS02001774YS02001770        0.65      0.65      0.76      0.01         0.01
  YS02001779YS02001774        0.52      0.52      0.76      0.01         0.01
  YS02001783YS02001784        0.58      0.60      0.58      0.77         0.58
  YS02001784YS02001785        0.46      0.58      0.46      1.06         0.46
  YS02001786YS02001788        0.01      0.46      0.01      0.89         0.01
  YS02001790YS02001791        0.01      0.01      0.01      0.56         0.01
  YS02001793JiankangQianchi        0.01      0.01      7.00      0.01         0.01
  YS02001882YS02001884        0.54      0.54      0.55      0.01         0.01
  YS02001884YS02001887        0.58      0.58      0.59      0.01         0.01
  YS02001887YS02001890        0.61      0.61      0.62      0.12         0.01
  YS02001890YS02001895        0.53      0.53      0.64      0.01         0.01
  YS02001895YS02001898        0.52      0.52      0.53      0.01         0.01
  YS02001898YS02001901        0.53      0.53      0.58      0.01         0.01
  YS02001901YS02001904        0.57      0.57      0.58      0.01         0.01
  YS02001904YS02001907        0.57      0.57      0.87      0.01         0.01
  YS02001907YS02006553        1.07      1.07      1.15      0.01         0.01
  YS02001910YS02001907        0.64      0.64      0.85      0.01         0.01
  YS02001915YS02001910        0.54      0.54      0.64      0.01         0.01
  YS02001918YS02001915        0.45      0.45      0.54      0.01         0.01
  YS02001920YS02001918        0.44      0.45      0.46      0.01         0.01
  YS02001923YS02001920        0.40      0.40      0.46      0.01         0.01
  YS02001926YS02001923        0.10      0.10      0.14      0.01         0.01
  YS02001929YS02001926        0.01      0.01      0.14      0.01         0.01
  YS02006553YS02006556        0.74      0.74      0.88      0.01         0.01
  YS02006556YS02006558        0.80      0.80      0.89      0.01         0.01
  YS02006558YS02006561        0.48      0.73      0.48      1.00         0.48
  YS02006561YS02001783        0.41      0.41      0.60      0.01         0.01
  YS02163301YS02001633        1.04      1.04      1.08      0.01         0.01
  YS02163601YS02164001        1.00      1.00      1.10      0.09         0.01
  YS02164001YS02001641        0.99      1.00      0.99      0.84         0.75
  
  
  ***************
  Pumping Summary
  ***************
  
  ---------------------------------------------------------------------------------------------------------
                                                  Min       Avg       Max     Total     Power    % Time Off
                        Percent   Number of      Flow      Flow      Flow    Volume     Usage    Pump Curve
  Pump                 Utilized   Start-Ups       LPS       LPS       LPS  10^6 ltr     Kw-hr    Low   High
  ---------------------------------------------------------------------------------------------------------
  CC-R1                   22.97          15      0.00    683.00    683.00     4.518     82.70    0.0   27.4
  CC-R2                   20.70          17      0.00    683.00    683.00     4.072     74.43    0.0   35.0
  CC-S1                   37.69          17      0.00    200.00    200.00     2.171     12.58    0.0    0.0
  CC-S2                   29.22          16      0.00    200.00    200.00     1.683      9.71    0.0    0.0
  JK-R1                    5.32          11      0.00   1000.00   1000.00     1.532     15.97    0.0    0.0
  JK-R2                    6.06          11      0.00   1000.00   1000.00     1.745     17.60    0.0    0.0
  JK-S                    14.70          32      0.00    300.00    300.00     1.270     20.06    0.0    0.0
  

  Analysis begun on:  Wed Dec 25 13:05:12 2024
  Analysis ended on:  Wed Dec 25 13:05:14 2024
  Total elapsed time: 00:00:02