
  EPA STORM WATER MANAGEMENT MODEL - VERSION 5.2 (Build 5.2.4)
  PYSWMM TOOLKIT API - VERSION v1.0 (2023-11-27)
  ------------------------------------------------------------

  WARNING 04: minimum elevation drop used for Conduit WS02004404WS02004405
  WARNING 03: negative offset ignored for Link YS02001904YS02001907
  
  ****************
  Analysis Options
  ****************
  Flow Units ............... LPS
  Process Models:
    Rainfall/Runoff ........ YES
    RDII ................... NO
    Snowmelt ............... NO
    Groundwater ............ NO
    Flow Routing ........... YES
    Ponding Allowed ........ NO
    Water Quality .......... NO
  Infiltration Method ...... HORTON
  Flow Routing Method ...... DYNWAVE
  Surcharge Method ......... EXTRAN
  Starting Date ............ 08/28/2015 08:00:00
  Ending Date .............. 08/28/2015 16:00:00
  Antecedent Dry Days ...... 8.0
  Report Time Step ......... 00:01:00
  Wet Time Step ............ 00:01:00
  Dry Time Step ............ 00:01:00
  Routing Time Step ........ 30.00 sec
  Variable Time Step ....... YES
  Maximum Trials ........... 8
  Number of Threads ........ 4
  Head Tolerance ........... 0.001500 m
  
  
  **************************        Volume         Depth
  Runoff Quantity Continuity     hectare-m            mm
  **************************     ---------       -------
  Total Precipitation ......         2.254        67.962
  Evaporation Loss .........         0.000         0.000
  Infiltration Loss ........         0.100         3.003
  Surface Runoff ...........         2.122        63.982
  Final Storage ............         0.033         0.994
  Continuity Error (%) .....        -0.025
  
  
  **************************        Volume        Volume
  Flow Routing Continuity        hectare-m      10^6 ltr
  **************************     ---------     ---------
  Dry Weather Inflow .......         0.025         0.251
  Wet Weather Inflow .......         2.122        21.224
  Groundwater Inflow .......         0.000         0.000
  RDII Inflow ..............         0.000         0.000
  External Inflow ..........         0.083         0.834
  External Outflow .........         1.559        15.588
  Flooding Loss ............         0.723         7.233
  Evaporation Loss .........         0.000         0.000
  Exfiltration Loss ........         0.000         0.000
  Initial Stored Volume ....         0.243         2.431
  Final Stored Volume ......         0.197         1.967
  Continuity Error (%) .....        -0.198
  
  
  *************************
  Highest Continuity Errors
  *************************
  Node YS02001583 (-5.12%)
  Node YS02001884 (4.89%)
  
  
  ***************************
  Time-Step Critical Elements
  ***************************
  Link WS02006252WS02006251 (47.58%)
  Link WS02006238WS02006235 (15.23%)
  Link WS02004404WS02004405 (12.23%)
  Link YS02001791YS02001793 (7.08%)
  Link WS02006235WS02006234 (6.07%)
  
  
  ********************************
  Highest Flow Instability Indexes
  ********************************
  Link WS02006113WS02006111 (51)
  Link WS02006111WS02006112 (23)
  Link WS02006238WS02006235 (12)
  Link WS02006252WS02006251 (12)
  Link WS02006256WS02006235 (11)
  
  
  *********************************
  Most Frequent Nonconverging Nodes
  *********************************
  Node CC-1 (10.02%)
  Node CC-2 (10.02%)
  Node JK-1 (10.02%)
  Node JK-2 (10.02%)
  Node WSC (10.02%)
  
  
  *************************
  Routing Time Step Summary
  *************************
  Minimum Time Step           :     0.00 sec
  Average Time Step           :     1.86 sec
  Maximum Time Step           :     7.04 sec
  % of Time in Steady State   :     0.00
  Average Iterations per Step :     2.90
  % of Steps Not Converging   :    10.02
  Time Step Frequencies       :
     30.000 - 13.228 sec      :     0.00 %
     13.228 -  5.833 sec      :     8.10 %
      5.833 -  2.572 sec      :    16.51 %
      2.572 -  1.134 sec      :    21.31 %
      1.134 -  0.500 sec      :    54.08 %
  
  
  ***************************
  Subcatchment Runoff Summary
  ***************************
  
  ------------------------------------------------------------------------------------------------------------------------------
                            Total      Total      Total      Total     Imperv       Perv      Total       Total     Peak  Runoff
                           Precip      Runon       Evap      Infil     Runoff     Runoff     Runoff      Runoff   Runoff   Coeff
  Subcatchment                 mm         mm         mm         mm         mm         mm         mm    10^6 ltr      LPS
  ------------------------------------------------------------------------------------------------------------------------------
  sub60                     67.96       0.00       0.00       1.81      58.61       6.35      64.96        0.85   624.19   0.956
  sub61                     67.96       0.00       0.00       2.62      55.28       8.94      64.22        1.18   865.91   0.945
  sub62                     67.96       0.00       0.00       1.20      61.24       4.24      65.48        1.79  1218.11   0.963
  sub63                     67.96       0.00       0.00       4.82      47.29      14.89      62.18        1.41   972.78   0.915
  sub64                     67.96       0.00       0.00       2.44      56.56       7.76      64.32        1.55   987.04   0.946
  sub65                     67.96       0.00       0.00       2.11      57.88       6.73      64.60        1.78  1099.44   0.951
  sub66                     67.96       0.00       0.00       5.98      47.18      13.73      60.91        2.84  1430.30   0.896
  sub67                     67.96       0.00       0.00       1.16      61.29       4.28      65.57        1.22   944.45   0.965
  sub68                     67.96       0.00       0.00       2.17      57.26       7.35      64.62        1.78  1251.19   0.951
  sub69                     67.96       0.00       0.00       1.93      57.66       8.27      65.93        2.44  1463.01   0.970
  sub70                     67.96       0.00       0.00       6.45      44.69      16.65      61.35        1.77   802.16   0.903
  sub71                     67.96       0.00       0.00       1.23      61.20       4.20      65.41        1.71  1064.43   0.962
  sub72                     67.96       0.00       0.00       1.10      61.80       3.66      65.47        0.90   514.85   0.963
  
  
  ******************
  Node Depth Summary
  ******************
  
  ---------------------------------------------------------------------------------
                                 Average  Maximum  Maximum  Time of Max    Reported
                                   Depth    Depth      HGL   Occurrence   Max Depth
  Node                 Type       Meters   Meters   Meters  days hr:min      Meters
  ---------------------------------------------------------------------------------
  WS02003060           JUNCTION     0.25     0.38     5.32     0  03:02        0.38
  WS02003066           JUNCTION     0.21     0.30     5.85     0  03:02        0.30
  WS02003067           JUNCTION     0.52     0.70     6.02     0  03:01        0.70
  WS02003069           JUNCTION     0.28     0.43     5.01     0  03:02        0.43
  WS02003072           JUNCTION     0.34     0.50     4.87     0  03:04        0.50
  WS02003073           JUNCTION     0.20     0.30     4.36     0  03:05        0.30
  WS02004401           JUNCTION     0.61     0.85     6.85     0  02:59        0.85
  WS02004402           JUNCTION     0.64     0.88     6.84     0  02:59        0.88
  WS02004403           JUNCTION     0.67     0.89     6.82     0  02:59        0.89
  WS02004404           JUNCTION     0.74     0.96     6.81     0  03:00        0.96
  WS02004405           JUNCTION     0.74     0.96     6.81     0  03:00        0.96
  WS02004406           JUNCTION     0.75     0.96     6.79     0  02:59        0.96
  WS02004407           JUNCTION     0.19     0.30     6.61     0  02:59        0.30
  WS02004409           JUNCTION     0.42     0.67     6.44     0  03:02        0.67
  WS02004410           JUNCTION     0.44     0.68     6.40     0  03:03        0.68
  WS02004411           JUNCTION     0.46     0.69     6.37     0  03:03        0.69
  WS02004412           JUNCTION     0.48     0.70     6.34     0  03:04        0.70
  WS02004413           JUNCTION     0.64     0.86     6.33     0  03:02        0.86
  WS02006109           JUNCTION     0.68     1.34     7.96     0  02:44        1.19
  WS02006110           JUNCTION     0.68     1.47     8.06     0  02:44        1.38
  WS02006111           JUNCTION     0.19     0.29     6.99     0  03:49        0.29
  WS02006112           JUNCTION     0.77     1.08     6.96     0  02:33        1.05
  WS02006113           JUNCTION     0.29     0.46     7.35     0  02:08        0.46
  WS02006115           JUNCTION     0.50     0.75     6.89     0  02:56        0.75
  WS02006116           JUNCTION     0.58     0.83     6.87     0  02:56        0.83
  WS02006228           JUNCTION     0.67     1.25     7.90     0  02:44        1.13
  WS02006229           JUNCTION     0.64     1.18     7.87     0  02:06        1.10
  WS02006230           JUNCTION     0.64     1.33     8.07     0  02:06        1.26
  WS02006231           JUNCTION     0.44     1.22     8.34     0  02:25        1.04
  WS02006232           JUNCTION     0.58     1.44     8.48     0  02:37        1.24
  WS02006234           JUNCTION     0.51     1.55     8.71     0  02:37        1.43
  WS02006235           JUNCTION     0.54     1.79     8.96     0  02:37        1.67
  WS02006238           JUNCTION     0.57     1.85     9.00     0  02:37        1.72
  WS02006239           JUNCTION     0.54     1.78     8.99     0  02:37        1.63
  WS02006240           JUNCTION     0.51     1.66     8.96     0  02:37        1.50
  WS02006242           JUNCTION     0.58     1.55     8.82     0  02:25        1.46
  WS02006243           JUNCTION     0.48     1.42     8.84     0  02:32        1.24
  WS02006245           JUNCTION     0.48     1.35     8.83     0  02:37        1.19
  WS02006247           JUNCTION     0.50     1.29     8.79     0  02:37        1.18
  WS02006248           JUNCTION     0.46     1.10     8.69     0  01:59        1.10
  WS02006249           JUNCTION     0.49     1.09     8.69     0  01:59        1.09
  WS02006251           JUNCTION     0.49     1.81     9.48     0  01:59        1.14
  WS02006252           JUNCTION     0.36     1.50     9.74     0  00:00        0.69
  WS02006256           JUNCTION     0.99     2.35     9.28     0  00:00        2.35
  WSF200               JUNCTION     0.18     0.29     5.52     0  02:30        0.29
  YS02001580           JUNCTION     0.08     1.05     9.59     0  01:53        1.05
  YS02001583           JUNCTION     0.12     1.14     9.64     0  01:53        0.97
  YS02001586           JUNCTION     0.18     1.13     9.30     0  01:53        1.13
  YS02001590           JUNCTION     0.28     1.40     9.26     0  01:52        1.37
  YS02001593           JUNCTION     0.21     1.31     9.18     0  01:53        1.29
  YS02001596           JUNCTION     0.28     1.68     9.09     0  01:53        1.65
  YS02001600           JUNCTION     0.34     1.87     9.00     0  01:53        1.86
  YS02001601           JUNCTION     0.52     2.06     8.90     0  01:53        2.06
  YS02001602           JUNCTION     0.44     1.87     8.77     0  01:53        1.87
  YS02001605           JUNCTION     0.41     1.78     8.68     0  01:53        1.78
  YS02001607           JUNCTION     0.41     1.68     8.53     0  01:53        1.64
  YS02001610           JUNCTION     0.45     1.68     8.48     0  01:53        1.68
  YS02001613           JUNCTION     0.41     1.70     8.54     0  01:53        1.66
  YS02001616           JUNCTION     0.34     1.61     8.52     0  01:53        1.60
  YS02001619           JUNCTION     0.32     1.61     8.54     0  01:53        1.60
  YS02001622           JUNCTION     0.31     1.62     8.52     0  01:53        1.57
  YS02001625           JUNCTION     0.58     1.78     8.38     0  01:53        1.78
  YS02001629           JUNCTION     0.42     1.85     8.40     0  01:53        1.85
  YS02001633           JUNCTION     0.50     2.02     8.48     0  01:59        2.01
  YS02001641           JUNCTION     0.49     1.96     8.39     0  01:59        1.94
  YS02001644           JUNCTION     0.48     1.92     8.35     0  01:58        1.92
  YS02001647           JUNCTION     0.27     1.81     8.42     0  01:58        1.74
  YS02001649           JUNCTION     0.31     2.05     8.44     0  01:58        1.97
  YS02001652           JUNCTION     0.21     2.05     8.64     0  01:58        1.81
  YS02001655           JUNCTION     0.16     2.09     8.94     0  01:58        1.60
  YS02001658           JUNCTION     0.12     2.14     9.28     0  01:58        1.38
  YS02001661           JUNCTION     0.15     1.48     8.88     0  01:58        1.17
  YS02001664           JUNCTION     0.05     0.68     8.60     0  01:59        0.66
  YS02001745           JUNCTION     0.06     0.90     8.41     0  01:58        0.84
  YS02001748           JUNCTION     0.11     2.27     9.35     0  01:58        1.25
  YS02001751           JUNCTION     0.14     2.02     8.90     0  01:58        1.44
  YS02001754           JUNCTION     0.19     2.06     8.67     0  01:58        1.68
  YS02001757           JUNCTION     0.34     2.14     8.40     0  01:58        2.01
  YS02001759           JUNCTION     0.28     2.08     8.44     0  01:58        2.02
  YS02001762           JUNCTION     0.27     2.10     8.50     0  01:58        2.00
  YS02001765           JUNCTION     0.25     2.06     8.51     0  01:58        1.96
  YS02001767           JUNCTION     0.25     2.00     8.49     0  01:58        1.93
  YS02001770           JUNCTION     0.26     1.95     8.44     0  01:58        1.95
  YS02001774           JUNCTION     0.32     2.01     8.43     0  01:58        1.99
  YS02001779           JUNCTION     0.17     1.68     8.37     0  01:56        1.68
  YS02001783           JUNCTION     0.22     1.27     7.41     0  01:56        1.24
  YS02001784           JUNCTION     0.23     1.15     7.21     0  01:56        1.13
  YS02001786           JUNCTION     0.20     0.90     6.93     0  01:56        0.88
  YS02001788           JUNCTION     0.14     0.62     6.60     0  02:00        0.62
  YS02001790           JUNCTION     0.17     0.72     6.37     0  02:03        0.72
  YS02001791           JUNCTION     0.10     0.44     5.91     0  01:58        0.43
  YS02001793           JUNCTION     0.05     0.31     5.14     0  02:02        0.28
  YS02001882           JUNCTION     0.28     1.83     8.55     0  01:55        1.66
  YS02001884           JUNCTION     0.37     1.91     8.53     0  01:55        1.76
  YS02001887           JUNCTION     0.45     1.94     8.48     0  01:55        1.83
  YS02001890           JUNCTION     0.48     1.81     8.32     0  01:55        1.81
  YS02001895           JUNCTION     0.25     1.59     8.33     0  01:55        1.56
  YS02001898           JUNCTION     0.26     1.65     8.39     0  01:55        1.56
  YS02001901           JUNCTION     0.37     1.68     8.29     0  01:56        1.68
  YS02001904           JUNCTION     0.35     1.64     8.27     0  02:05        1.64
  YS02001907           JUNCTION     0.68     1.96     8.25     0  01:56        1.96
  YS02001910           JUNCTION     0.48     1.96     8.47     0  01:57        1.93
  YS02001915           JUNCTION     0.28     2.00     8.72     0  01:55        1.86
  YS02001918           JUNCTION     0.15     1.81     8.88     0  01:57        1.55
  YS02001920           JUNCTION     0.23     2.14     9.15     0  01:57        1.62
  YS02001923           JUNCTION     0.11     2.03     9.29     0  01:57        1.39
  YS02001926           JUNCTION     0.15     1.90     9.35     0  01:57        1.22
  YS02001929           JUNCTION     0.08     1.78     9.47     0  01:57        0.99
  YS02006553           JUNCTION     0.68     1.99     8.27     0  01:59        1.97
  YS02006556           JUNCTION     0.66     1.99     8.30     0  01:59        1.95
  YS02006558           JUNCTION     0.70     2.05     8.32     0  01:59        2.01
  YS02006561           JUNCTION     0.13     0.96     7.62     0  01:56        0.90
  YS02163301           JUNCTION     0.44     1.92     8.43     0  01:59        1.92
  YS02163601           JUNCTION     0.54     2.04     8.44     0  01:59        2.02
  YS02164001           JUNCTION     0.47     1.95     8.41     0  01:59        1.94
  CC-1                 OUTFALL      0.00     0.00     0.00     0  00:00        0.00
  CC-2                 OUTFALL      0.00     0.00     0.00     0  00:00        0.00
  JK-1                 OUTFALL      0.00     0.00     0.00     0  00:00        0.00
  JK-2                 OUTFALL      0.00     0.00     0.00     0  00:00        0.00
  WSC                  OUTFALL      0.20     0.30     0.97     0  03:05        0.30
  CC-storage           STORAGE      0.88     1.67     7.17     0  02:30        1.67
  JK-storage           STORAGE      3.04     4.23     5.03     0  02:02        4.18
  
  
  *******************
  Node Inflow Summary
  *******************
  
  -------------------------------------------------------------------------------------------------
                                  Maximum  Maximum                  Lateral       Total        Flow
                                  Lateral    Total  Time of Max      Inflow      Inflow     Balance
                                   Inflow   Inflow   Occurrence      Volume      Volume       Error
  Node                 Type           LPS      LPS  days hr:min    10^6 ltr    10^6 ltr     Percent
  -------------------------------------------------------------------------------------------------
  WS02003060           JUNCTION     16.53   552.78     0  03:01       0.476        5.96       0.039
  WS02003066           JUNCTION      0.00   536.21     0  03:02           0        5.49       0.025
  WS02003067           JUNCTION      0.00   536.21     0  03:02           0        5.49       0.077
  WS02003069           JUNCTION      0.32   553.08     0  03:02     0.00922        5.97       0.068
  WS02003072           JUNCTION      0.00   553.05     0  03:03           0        5.96       0.120
  WS02003073           JUNCTION      1.82   554.88     0  03:04      0.0524        6.01       0.100
  WS02004401           JUNCTION      0.00   537.54     0  02:27           0        5.59       0.181
  WS02004402           JUNCTION      0.00   537.32     0  02:27           0        5.58       0.184
  WS02004403           JUNCTION      0.00   536.83     0  02:58           0        5.57       0.180
  WS02004404           JUNCTION      0.16   536.67     0  02:27     0.00467        5.56       0.150
  WS02004405           JUNCTION      0.04   536.79     0  02:27      0.0011        5.56       0.224
  WS02004406           JUNCTION      0.00   536.96     0  03:00           0        5.55       0.372
  WS02004407           JUNCTION      0.00   536.63     0  02:59           0        5.52       0.020
  WS02004409           JUNCTION      0.00   536.52     0  02:59           0        5.52       0.048
  WS02004410           JUNCTION      0.00   536.39     0  03:00           0        5.52       0.079
  WS02004411           JUNCTION      0.00   536.29     0  03:01           0        5.52       0.101
  WS02004412           JUNCTION      0.00   536.25     0  03:00           0        5.51       0.135
  WS02004413           JUNCTION      0.00   536.24     0  03:02           0         5.5       0.241
  WS02006109           JUNCTION      1.23   557.09     0  02:44      0.0354        5.64       0.170
  WS02006110           JUNCTION      0.00   556.08     0  02:44           0        5.63       0.114
  WS02006111           JUNCTION      0.00   561.69     0  03:48           0        5.62       0.010
  WS02006112           JUNCTION      0.00   543.01     0  02:46           0        5.62       0.310
  WS02006113           JUNCTION      0.00   571.27     0  02:07           0        5.62       0.031
  WS02006115           JUNCTION      0.00   553.25     0  02:07           0         5.6       0.114
  WS02006116           JUNCTION      0.00   539.07     0  02:09           0         5.6       0.102
  WS02006228           JUNCTION      0.00   556.23     0  02:44           0        5.61       0.064
  WS02006229           JUNCTION      0.00   556.14     0  02:44           0        5.61       0.078
  WS02006230           JUNCTION     10.28   591.25     0  02:02       0.296        5.61       0.054
  WS02006231           JUNCTION      0.00   593.57     0  02:02           0        5.32      -0.006
  WS02006232           JUNCTION      0.00   591.49     0  02:02           0        5.33       0.161
  WS02006234           JUNCTION      0.00   581.11     0  02:02           0        5.32      -0.150
  WS02006235           JUNCTION      0.00   567.62     0  02:06           0        5.39       0.149
  WS02006238           JUNCTION      0.00   425.59     0  02:00           0        4.49      -0.133
  WS02006239           JUNCTION      0.00   424.94     0  02:00           0        4.45      -0.129
  WS02006240           JUNCTION      0.00   423.58     0  02:00           0        4.42      -0.031
  WS02006242           JUNCTION      0.00   422.89     0  02:00           0         4.4      -0.014
  WS02006243           JUNCTION      0.00   422.22     0  02:00           0        4.38      -0.151
  WS02006245           JUNCTION      0.00   422.02     0  02:00           0        4.38       0.214
  WS02006247           JUNCTION      0.00   422.85     0  02:00           0        4.38      -0.009
  WS02006248           JUNCTION      0.00   422.52     0  02:00           0        4.38       0.042
  WS02006249           JUNCTION      0.00   459.22     0  01:59           0        4.61       0.206
  WS02006251           JUNCTION      0.08   420.43     0  01:59     0.00222        4.61       0.012
  WS02006252           JUNCTION      0.00   400.00     0  00:00           0         4.6      -0.116
  WS02006256           JUNCTION      0.00   300.00     0  00:00           0        1.34      -0.706
  WSF200               JUNCTION      0.00   536.22     0  03:02           0        5.48       0.008
  YS02001580           JUNCTION      0.00   136.26     0  01:53           0     0.00441      -0.090
  YS02001583           JUNCTION      0.00   177.60     0  01:53           0      0.0154      -4.867
  YS02001586           JUNCTION    802.16   802.21     0  02:04        1.77        1.78       0.072
  YS02001590           JUNCTION      0.00   317.98     0  02:13           0        1.34      -0.031
  YS02001593           JUNCTION      0.00   318.07     0  02:13           0        1.35      -0.007
  YS02001596           JUNCTION      0.00   318.03     0  02:13           0        1.35      -0.004
  YS02001600           JUNCTION      0.00   318.02     0  02:13           0        1.35       0.003
  YS02001601           JUNCTION   1463.01  1780.73     0  02:03        2.44        3.79       0.013
  YS02001602           JUNCTION      0.00   523.52     0  01:53           0        2.27       0.018
  YS02001605           JUNCTION      0.00   523.44     0  01:53           0        2.15       0.019
  YS02001607           JUNCTION      0.00   523.27     0  01:53           0        2.15       0.084
  YS02001610           JUNCTION      0.00   799.48     0  02:03           0        2.43       0.089
  YS02001613           JUNCTION      0.00   535.35     0  01:53           0        1.94       0.083
  YS02001616           JUNCTION      0.00   534.95     0  01:53           0        1.94       0.018
  YS02001619           JUNCTION   1430.30  1430.30     0  02:03        2.84         4.5      -0.001
  YS02001622           JUNCTION      0.00   983.10     0  02:02           0        4.21      -0.001
  YS02001625           JUNCTION      0.00  1379.14     0  02:05           0        4.44       0.199
  YS02001629           JUNCTION      0.00   925.90     0  01:53           0        3.45       0.016
  YS02001633           JUNCTION   1099.64  1368.46     0  01:55        1.78        4.94       0.067
  YS02001641           JUNCTION      0.00  1368.13     0  01:55           0        4.66       0.060
  YS02001644           JUNCTION    987.08  1777.60     0  01:56        1.55         6.2       0.053
  YS02001647           JUNCTION      0.00  1777.60     0  01:56           0        5.63       0.008
  YS02001649           JUNCTION      0.00  2004.56     0  01:55           0        7.05       0.005
  YS02001652           JUNCTION      0.00  1004.70     0  02:01           0        1.42      -0.075
  YS02001655           JUNCTION      0.15  1003.51     0  02:01     0.00443        1.42      -0.052
  YS02001658           JUNCTION      0.00  1003.35     0  02:01           0        1.41      -0.031
  YS02001661           JUNCTION      0.00  1004.13     0  02:02           0        1.41       0.018
  YS02001664           JUNCTION    972.78   972.78     0  02:02        1.41        1.41      -0.011
  YS02001745           JUNCTION    624.19   624.19     0  02:02       0.854       0.854       0.173
  YS02001748           JUNCTION      0.04   638.81     0  02:02      0.0013       0.855      -0.322
  YS02001751           JUNCTION      0.01   638.51     0  02:02    0.000317       0.863       0.112
  YS02001754           JUNCTION      0.26   639.08     0  02:01     0.00749       0.877      -0.148
  YS02001757           JUNCTION      0.00  3350.57     0  01:59           0        10.6       0.022
  YS02001759           JUNCTION    865.95  1403.98     0  02:01        1.18        2.72      -0.009
  YS02001762           JUNCTION      0.00   749.57     0  01:58           0        1.54       0.005
  YS02001765           JUNCTION      0.00   751.94     0  01:58           0        1.54       0.006
  YS02001767           JUNCTION      0.54   752.76     0  01:58      0.0154        1.54      -0.005
  YS02001770           JUNCTION   1218.26  1218.26     0  02:02         1.8        1.84      -0.023
  YS02001774           JUNCTION      0.00   718.74     0  02:02           0       0.335       0.376
  YS02001779           JUNCTION      0.01   717.78     0  02:02    0.000144       0.291      -0.387
  YS02001783           JUNCTION      0.00  1168.83     0  01:59           0        4.05       0.006
  YS02001784           JUNCTION      1.06  1170.12     0  01:59      0.0305        4.08       0.012
  YS02001786           JUNCTION      0.06  1170.46     0  01:59     0.00162        4.08       0.017
  YS02001788           JUNCTION      0.07  1170.31     0  02:00     0.00204        4.09       0.008
  YS02001790           JUNCTION      0.15  1179.67     0  02:00     0.00446        4.09       0.027
  YS02001791           JUNCTION      0.00  1286.93     0  02:03           0        4.09      -0.031
  YS02001793           JUNCTION      0.00  1253.63     0  02:03           0        4.09       0.006
  YS02001882           JUNCTION      0.00    67.59     0  01:55           0      0.0127       5.256
  YS02001884           JUNCTION      0.00    80.00     0  01:54           0      0.0486       5.143
  YS02001887           JUNCTION    944.90   945.25     0  02:01        1.23        1.27       0.341
  YS02001890           JUNCTION      0.00   945.97     0  02:01           0        1.23       0.415
  YS02001895           JUNCTION      0.00   516.94     0  02:06           0        1.08       0.139
  YS02001898           JUNCTION      0.00   517.38     0  02:07           0        1.07       0.028
  YS02001901           JUNCTION      0.00   517.41     0  02:04           0        1.08       0.304
  YS02001904           JUNCTION      0.00   517.52     0  02:06           0        1.08       0.256
  YS02001907           JUNCTION      0.00  2194.42     0  02:02           0        3.78       0.472
  YS02001910           JUNCTION      0.00  1597.84     0  02:02           0        2.69       0.264
  YS02001915           JUNCTION   1064.45  1597.91     0  02:02        1.71        2.73       0.057
  YS02001918           JUNCTION      0.00   532.05     0  02:02           0        1.05       0.020
  YS02001920           JUNCTION      2.87   533.09     0  02:02      0.0827        1.03       0.099
  YS02001923           JUNCTION      0.04   529.10     0  02:02     0.00109       0.936      -0.075
  YS02001926           JUNCTION      0.05   641.48     0  01:57      0.0015       0.916      -0.010
  YS02001929           JUNCTION    514.85   514.85     0  02:03         0.9       0.903      -0.049
  YS02006553           JUNCTION      0.00   800.59     0  02:20           0        2.32       0.514
  YS02006556           JUNCTION      0.00   801.99     0  02:20           0        2.33       0.332
  YS02006558           JUNCTION   1252.07  1252.07     0  02:02         1.8         4.1       0.085
  YS02006561           JUNCTION      0.00  1169.45     0  01:59           0        4.05       0.002
  YS02163301           JUNCTION      0.00   924.01     0  01:55           0        3.44       0.046
  YS02163601           JUNCTION      0.11  1368.29     0  01:55     0.00317        4.65       0.103
  YS02164001           JUNCTION      0.00  1368.29     0  01:55           0        4.65       0.047
  CC-1                 OUTFALL       0.00   683.00     0  00:00           0         3.2       0.000
  CC-2                 OUTFALL       0.00   683.00     0  00:00           0        3.65       0.000
  JK-1                 OUTFALL       0.00  1000.00     0  00:00           0        1.79       0.000
  JK-2                 OUTFALL       0.00  1000.00     0  00:00           0       0.939       0.000
  WSC                  OUTFALL       0.00   554.87     0  03:05           0           6       0.000
  CC-storage           STORAGE       0.00  3349.91     0  01:59           0        12.9      -0.215
  JK-storage           STORAGE       0.00  1247.83     0  02:18           0        4.24       0.074
  
  
  **********************
  Node Surcharge Summary
  **********************
  
  Surcharging occurs when water rises above the top of the highest conduit.
  ---------------------------------------------------------------------
                                               Max. Height   Min. Depth
                                   Hours       Above Crown    Below Rim
  Node                 Type      Surcharged         Meters       Meters
  ---------------------------------------------------------------------
  WS02006109           JUNCTION        1.87          0.523        1.297
  WS02006110           JUNCTION        0.73          0.564        1.286
  WS02006112           JUNCTION        0.77          0.077        1.603
  WS02006228           JUNCTION        1.86          0.416        1.784
  WS02006229           JUNCTION        1.89          0.376        2.074
  WS02006230           JUNCTION        0.73          0.250        1.320
  WS02006231           JUNCTION        0.86          0.509        1.021
  WS02006232           JUNCTION        2.04          0.739        0.741
  WS02006234           JUNCTION        1.14          0.835        0.405
  WS02006235           JUNCTION        1.86          1.081        0.209
  WS02006238           JUNCTION        1.95          1.133        0.297
  WS02006239           JUNCTION        1.88          1.044        0.246
  WS02006240           JUNCTION        1.91          0.953        0.437
  WS02006242           JUNCTION        2.09          0.820        0.000
  WS02006243           JUNCTION        1.94          0.714        0.056
  WS02006245           JUNCTION        1.94          0.638        0.212
  WS02006247           JUNCTION        1.98          0.576        0.184
  WS02006248           JUNCTION        1.92          0.380        0.000
  WS02006249           JUNCTION        1.96          0.390        0.000
  WS02006251           JUNCTION        0.91          0.782        0.398
  WS02006252           JUNCTION        2.50          1.100        0.000
  WS02006256           JUNCTION        5.92          2.050        0.000
  YS02001580           JUNCTION        0.64          0.450        0.000
  YS02001583           JUNCTION        0.65          0.500        0.000
  YS02001586           JUNCTION        0.77          0.510        0.000
  YS02001590           JUNCTION        0.84          0.750        0.000
  YS02001593           JUNCTION        0.85          0.693        0.147
  YS02001596           JUNCTION        0.96          0.946        0.124
  YS02001600           JUNCTION        1.12          1.190        0.000
  YS02001601           JUNCTION        1.45          1.440        0.000
  YS02001602           JUNCTION        1.36          1.270        0.000
  YS02001605           JUNCTION        1.31          1.180        0.000
  YS02001607           JUNCTION        0.83          0.680        0.000
  YS02001610           JUNCTION        0.86          0.680        0.000
  YS02001613           JUNCTION        0.82          0.700        0.000
  YS02001616           JUNCTION        0.78          0.610        0.000
  YS02001619           JUNCTION        0.77          0.610        0.000
  YS02001622           JUNCTION        0.76          0.620        0.000
  YS02001625           JUNCTION        0.95          0.780        0.000
  YS02001629           JUNCTION        0.72          0.470        0.000
  YS02001633           JUNCTION        0.97          1.004        0.056
  YS02001641           JUNCTION        0.92          0.957        0.143
  YS02001644           JUNCTION        0.89          0.920        0.000
  YS02001647           JUNCTION        0.68          0.810        0.090
  YS02001649           JUNCTION        0.81          1.050        0.000
  YS02001652           JUNCTION        0.60          1.018        0.112
  YS02001655           JUNCTION        0.44          1.089        0.111
  YS02001658           JUNCTION        0.24          1.140        0.160
  YS02001661           JUNCTION        0.08          0.411        0.979
  YS02001748           JUNCTION        0.19          1.190        0.000
  YS02001751           JUNCTION        0.32          1.018        0.182
  YS02001754           JUNCTION        0.51          1.012        0.138
  YS02001757           JUNCTION        0.88          1.136        0.074
  YS02001759           JUNCTION        0.78          1.080        0.130
  YS02001762           JUNCTION        0.74          1.097        0.053
  YS02001765           JUNCTION        0.70          1.061        0.039
  YS02001767           JUNCTION        0.66          1.002        0.028
  YS02001770           JUNCTION        0.63          0.920        0.000
  YS02001774           JUNCTION        0.72          1.006        0.044
  YS02001779           JUNCTION        0.50          0.680        0.000
  YS02001783           JUNCTION        0.56          0.473        1.127
  YS02001784           JUNCTION        0.53          0.346        1.144
  YS02001786           JUNCTION        0.43          0.096        1.334
  YS02001882           JUNCTION        0.50          0.830        0.000
  YS02001884           JUNCTION        0.51          0.849        0.021
  YS02001887           JUNCTION        0.55          0.887        0.063
  YS02001890           JUNCTION        0.56          0.760        0.000
  YS02001895           JUNCTION        0.49          0.588        0.162
  YS02001898           JUNCTION        0.49          0.621        0.119
  YS02001901           JUNCTION        0.53          0.681        0.189
  YS02001904           JUNCTION        0.52          0.639        0.211
  YS02001907           JUNCTION        0.76          0.950        0.000
  YS02001910           JUNCTION        0.59          0.962        0.138
  YS02001915           JUNCTION        0.50          1.000        0.000
  YS02001918           JUNCTION        0.42          0.810        0.000
  YS02001920           JUNCTION        0.43          1.138        0.002
  YS02001923           JUNCTION        0.14          0.820        0.000
  YS02001926           JUNCTION        0.16          0.900        0.000
  YS02001929           JUNCTION        0.01          0.780        0.000
  YS02006553           JUNCTION        0.79          0.988        0.202
  YS02006556           JUNCTION        0.68          0.949        0.401
  YS02006558           JUNCTION        0.67          0.949        0.451
  YS02006561           JUNCTION        0.39          0.157        0.993
  YS02163301           JUNCTION        0.96          0.916        0.114
  YS02163601           JUNCTION        1.01          1.038        0.042
  YS02164001           JUNCTION        0.92          0.954        0.146
  
  
  *********************
  Node Flooding Summary
  *********************
  
  Flooding refers to all water that overflows a node, whether it ponds or not.
  --------------------------------------------------------------------------
                                                             Total   Maximum
                                 Maximum   Time of Max       Flood    Ponded
                        Hours       Rate    Occurrence      Volume     Depth
  Node                 Flooded       LPS   days hr:min    10^6 ltr    Meters
  --------------------------------------------------------------------------
  WS02006242              0.01     10.53      0  02:37       0.000     0.000
  WS02006248              0.01     29.53      0  02:25       0.000     0.000
  WS02006249              0.89    141.95      0  01:59       0.214     0.000
  WS02006252              0.01    245.63      0  00:00       0.000     0.000
  WS02006256              1.24    293.19      0  00:00       0.412     0.000
  YS02001580              0.01    123.21      0  01:53       0.000     0.000
  YS02001583              0.01    108.37      0  01:53       0.000     0.000
  YS02001586              0.52    484.76      0  02:04       0.426     0.000
  YS02001590              0.01     23.54      0  01:52       0.000     0.000
  YS02001600              0.01      0.68      0  01:53       0.000     0.000
  YS02001601              0.70   1382.80      0  02:03       1.515     0.000
  YS02001602              0.59     61.97      0  02:02       0.120     0.000
  YS02001605              0.01      2.98      0  01:53       0.000     0.000
  YS02001607              0.01     26.46      0  01:53       0.000     0.000
  YS02001610              0.53    799.05      0  02:03       0.775     0.000
  YS02001613              0.01      9.94      0  01:53       0.000     0.000
  YS02001616              0.01     34.60      0  01:53       0.000     0.000
  YS02001619              0.01     18.17      0  01:53       0.000     0.000
  YS02001622              0.01     93.43      0  01:53       0.000     0.000
  YS02001625              0.49   1379.10      0  02:05       1.259     0.000
  YS02001629              0.14    254.59      0  02:01       0.071     0.000
  YS02001644              0.21   1304.76      0  02:02       0.555     0.000
  YS02001649              0.01     28.62      0  01:58       0.000     0.000
  YS02001748              0.01    234.22      0  01:58       0.000     0.000
  YS02001770              0.01     16.95      0  01:58       0.000     0.000
  YS02001779              0.19    717.67      0  02:02       0.274     0.000
  YS02001882              0.01     35.18      0  01:55       0.000     0.000
  YS02001890              0.19    431.44      0  02:01       0.144     0.000
  YS02001907              0.36   2193.73      0  02:02       1.461     0.000
  YS02001915              0.01     99.49      0  01:55       0.000     0.000
  YS02001918              0.01    176.84      0  01:57       0.002     0.000
  YS02001923              0.01     62.45      0  01:57       0.000     0.000
  YS02001926              0.01    163.16      0  01:57       0.001     0.000
  YS02001929              0.01    184.04      0  01:57       0.001     0.000
  
  
  **********************
  Storage Volume Summary
  **********************
  
  ------------------------------------------------------------------------------------------------
                         Average    Avg   Evap  Exfil     Maximum    Max    Time of Max    Maximum
                          Volume   Pcnt   Pcnt   Pcnt      Volume   Pcnt     Occurrence    Outflow
  Storage Unit           1000 m³   Full   Loss   Loss     1000 m³   Full    days hr:min        LPS
  ------------------------------------------------------------------------------------------------
  CC-storage               2.446   38.2    0.0    0.0       4.654   72.6       0  02:30    1783.53
  JK-storage               0.153   52.4    0.0    0.0       0.212   72.9       0  02:02    2300.00
  
  
  ***********************
  Outfall Loading Summary
  ***********************
  
  -----------------------------------------------------------
                         Flow       Avg       Max       Total
                         Freq      Flow      Flow      Volume
  Outfall Node           Pcnt       LPS       LPS    10^6 ltr
  -----------------------------------------------------------
  CC-1                  16.37    683.00    683.00       3.203
  CC-2                  19.18    683.00    683.00       3.649
  JK-1                   8.03   1000.00   1000.00       1.795
  JK-2                   3.40   1000.00   1000.00       0.939
  WSC                   99.96    277.85    554.87       6.002
  -----------------------------------------------------------
  System                29.39   3643.85   3849.79      15.588
  
  
  ********************
  Link Flow Summary
  ********************
  
  -----------------------------------------------------------------------------
                                 Maximum  Time of Max   Maximum    Max/    Max/
                                  |Flow|   Occurrence   |Veloc|    Full    Full
  Link                 Type          LPS  days hr:min     m/sec    Flow   Depth
  -----------------------------------------------------------------------------
  1                    CONDUIT    554.87     0  03:05      2.83    0.19    0.30
  WS02003060WS02003069 CONDUIT    552.76     0  03:02      1.64    0.22    0.34
  WS02003066WSF200     CONDUIT    536.22     0  03:02      2.85    0.09    0.22
  WS02003067WS02003066 CONDUIT    536.21     0  03:02      1.21    0.17    0.42
  WS02003069WS02003072 CONDUIT    553.05     0  03:03      1.37    0.27    0.39
  WS02003072WS02003073 CONDUIT    553.06     0  03:04      1.43    1.19    0.37
  WS02004401WS02004402 CONDUIT    537.32     0  02:27      0.98    0.65    0.86
  WS02004402WS02004403 CONDUIT    536.83     0  02:58      0.97    0.77    0.88
  WS02004403WS02004404 CONDUIT    536.51     0  02:27      0.92    0.39    0.93
  WS02004404WS02004405 CONDUIT    536.75     0  02:27      1.08    5.26    0.96
  WS02004405WS02004406 CONDUIT    536.96     0  03:00      0.99    1.06    0.96
  WS02004406WS02004407 CONDUIT    536.63     0  02:59      1.04    0.24    0.63
  WS02004407WS02004409 CONDUIT    536.52     0  02:59      1.55    0.19    0.48
  WS02004409WS02004410 CONDUIT    536.39     0  03:00      1.01    0.69    0.67
  WS02004410WS02004411 CONDUIT    536.29     0  03:01      0.94    0.73    0.69
  WS02004411WS02004412 CONDUIT    536.25     0  03:00      0.92    0.76    0.69
  WS02004412WS02004413 CONDUIT    536.24     0  03:02      0.82    0.36    0.78
  WS02004413WS02003067 CONDUIT    536.21     0  03:02      1.11    0.23    0.59
  WS02006109WS02006110 CONDUIT    556.08     0  02:44      1.11    1.07    1.00
  WS02006110WS02006113 CONDUIT    571.27     0  02:07      1.39    0.52    0.79
  WS02006111WS02006112 CONDUIT    543.01     0  02:46      1.81    0.26    0.67
  WS02006112WS02006115 CONDUIT    553.25     0  02:07      0.80    0.33    0.87
  WS02006113WS02006111 CONDUIT    561.69     0  03:48      2.47    0.67    0.46
  WS02006115WS02006116 CONDUIT    539.07     0  02:09      1.00    0.69    0.76
  WS02006116WS02004401 CONDUIT    537.54     0  02:27      0.98    0.74    0.84
  WS02006228WS02006109 CONDUIT    555.86     0  02:44      1.11    2.43    1.00
  WS02006229WS02006228 CONDUIT    556.23     0  02:44      1.14    1.84    1.00
  WS02006230WS02006229 CONDUIT    556.14     0  02:44      1.45   12.38    1.00
  WS02006231WS02006230 CONDUIT    580.98     0  02:02      1.59    8.81    1.00
  WS02006232WS02006231 CONDUIT    593.57     0  02:02      1.55    1.24    1.00
  WS02006234WS02006232 CONDUIT    591.49     0  02:02      1.54    1.20    1.00
  WS02006235WS02006234 CONDUIT    581.11     0  02:02      1.51    6.13    1.00
  WS02006238WS02006235 CONDUIT    426.43     0  02:35      1.45    0.95    1.00
  WS02006239WS02006238 CONDUIT    425.59     0  02:00      1.11    1.36    1.00
  WS02006240WS02006239 CONDUIT    424.94     0  02:00      1.24    1.34    1.00
  WS02006242WS02006240 CONDUIT    423.58     0  02:00      1.13    1.68    1.00
  WS02006243WS02006242 CONDUIT    422.89     0  02:00      1.40    0.90    1.00
  WS02006245WS02006243 CONDUIT    422.22     0  02:00      1.45    1.25    1.00
  WS02006247WS02006245 CONDUIT    422.02     0  02:00      1.43    3.35    1.00
  WS02006248WS02006247 CONDUIT    422.85     0  02:00      1.44    0.92    1.00
  WS02006249WS02006248 CONDUIT    422.52     0  02:00      1.36    2.31    1.00
  WS02006251WS02006249 CONDUIT    459.22     0  01:59      1.99    1.32    1.00
  WS02006252WS02006251 CONDUIT    420.35     0  01:59     25.96    1.54    1.00
  WS02006256WS02006235 CONDUIT    288.91     0  00:00      4.23    3.06    1.00
  WSF200WS02003060     CONDUIT    536.25     0  03:01      2.06    0.12    0.28
  YS02001580YS02001583 CONDUIT    136.26     0  01:53      0.70    0.53    1.00
  YS02001583YS02001586 CONDUIT    163.80     0  01:53      0.72    0.25    1.00
  YS02001586YS02001590 CONDUIT    317.98     0  02:13      1.25    0.56    1.00
  YS02001590YS02001593 CONDUIT    318.07     0  02:13      1.12    2.00    1.00
  YS02001593YS02001596 CONDUIT    318.03     0  02:13      1.75    0.50    1.00
  YS02001596YS02001600 CONDUIT    318.02     0  02:13      1.24    0.62    1.00
  YS02001600YS02001601 CONDUIT    317.98     0  02:12      1.12    0.55    1.00
  YS02001601YS02001602 CONDUIT    523.52     0  01:53      1.85    1.89    1.00
  YS02001602YS02001605 CONDUIT    523.44     0  01:53      1.85   11.08    1.00
  YS02001605YS02001607 CONDUIT    523.27     0  01:53      1.85    2.87    1.00
  YS02001607YS02001610 CONDUIT    531.83     0  01:53      0.68    0.51    1.00
  YS02001610YS02001613 CONDUIT    535.35     0  01:53      0.68    0.62    1.00
  YS02001613YS02001616 CONDUIT    534.95     0  01:53      0.69    0.46    1.00
  YS02001616YS02001619 CONDUIT    493.89     0  01:53      0.67    0.86    1.00
  YS02001619YS02001622 CONDUIT    983.10     0  02:02      1.25    1.45    1.00
  YS02001622YS02001625 CONDUIT    983.43     0  02:02      1.25    0.52    1.00
  YS02001625YS02001629 CONDUIT    925.90     0  01:53      1.19    0.44    1.00
  YS02001629YS02163301 CONDUIT    924.01     0  01:55      1.18    1.14    1.00
  YS02001633YS02163601 CONDUIT   1368.18     0  01:55      1.74    1.44    1.00
  YS02001641YS02001644 CONDUIT   1368.06     0  01:55      1.74    4.42    1.00
  YS02001644YS02001647 CONDUIT   1777.60     0  01:56      2.27    1.04    1.00
  YS02001647YS02001649 CONDUIT   1791.84     0  01:55      2.33    0.95    1.00
  YS02001649YS02001757 CONDUIT   1976.58     0  01:56      2.52    1.20    1.00
  YS02001652YS02001649 CONDUIT   1005.40     0  02:01      1.28    0.50    1.00
  YS02001655YS02001652 CONDUIT   1004.70     0  02:01      1.35    0.49    1.00
  YS02001658YS02001655 CONDUIT   1003.35     0  02:01      1.91    0.43    1.00
  YS02001661YS02001658 CONDUIT   1003.35     0  02:01      2.32    0.39    1.00
  YS02001664YS02001661 CONDUIT   1004.13     0  02:02      2.32    0.31    0.84
  YS02001745YS02001748 CONDUIT    638.76     0  02:02      2.19    0.25    0.95
  YS02001748YS02001751 CONDUIT    638.49     0  02:02      1.71    0.32    1.00
  YS02001751YS02001754 CONDUIT    638.82     0  02:01      1.44    0.31    1.00
  YS02001754YS02001757 CONDUIT    639.70     0  02:02      0.81    0.26    1.00
  YS02001757CaochengTiaoxuchi CONDUIT   3349.91     0  01:59      4.27    1.45    1.00
  YS02001759YS02001757 CONDUIT   1404.73     0  02:01      1.79    1.00    1.00
  YS02001762YS02001759 CONDUIT    747.14     0  01:58      0.95    0.86    1.00
  YS02001765YS02001762 CONDUIT    749.57     0  01:58      0.95    0.70    1.00
  YS02001767YS02001765 CONDUIT    751.94     0  01:58      0.96    0.95    1.00
  YS02001770YS02001767 CONDUIT    752.23     0  01:58      0.96    2.98    1.00
  YS02001774YS02001770 CONDUIT    718.74     0  02:02      0.92    0.46    1.00
  YS02001779YS02001774 CONDUIT    717.77     0  02:02      0.91    0.36    1.00
  YS02001783YS02001784 CONDUIT   1169.06     0  01:59      2.33    1.61    1.00
  YS02001784YS02001785 CONDUIT   1170.41     0  01:59      2.33    2.72    1.00
  YS02001786YS02001788 CONDUIT   1170.24     0  02:00      2.49    2.25    0.89
  YS02001788YS02001790 CONDUIT   1179.52     0  02:00      2.72    0.87    0.84
  YS02001790YS02001791 CONDUIT   1286.93     0  02:03      3.43    1.40    0.71
  YS02001791YS02001793 CONDUIT   1253.63     0  02:03      6.75    0.54    0.45
  YS02001793JiankangQianchi CONDUIT   1247.83     0  02:18      2.51    0.10    0.65
  YS02001882YS02001884 CONDUIT     67.59     0  01:55      0.13    0.08    1.00
  YS02001884YS02001887 CONDUIT     80.00     0  01:54      0.10    0.11    1.00
  YS02001887YS02001890 CONDUIT    945.97     0  02:01      1.20    1.62    1.00
  YS02001890YS02001895 CONDUIT    516.94     0  02:06      0.66    0.24    1.00
  YS02001895YS02001898 CONDUIT    517.38     0  02:07      0.66    0.90    1.00
  YS02001898YS02001901 CONDUIT    517.41     0  02:04      0.66    0.33    1.00
  YS02001901YS02001904 CONDUIT    517.52     0  02:06      0.66    0.80    1.00
  YS02001904YS02001907 CONDUIT    517.52     0  02:05      0.66    0.18    1.00
  YS02001907YS02006553 CONDUIT    800.59     0  02:20      0.89    0.94    1.00
  YS02001910YS02001907 CONDUIT   1598.00     0  02:02      2.03    0.90    1.00
  YS02001915YS02001910 CONDUIT   1597.84     0  02:02      2.03    0.79    1.00
  YS02001918YS02001915 CONDUIT    533.97     0  02:02      0.68    0.29    1.00
  YS02001920YS02001918 CONDUIT    532.05     0  02:02      0.68    0.51    1.00
  YS02001923YS02001920 CONDUIT    530.22     0  02:02      0.69    0.24    1.00
  YS02001926YS02001923 CONDUIT    529.06     0  02:02      0.96    0.76    1.00
  YS02001929YS02001926 CONDUIT    528.26     0  02:02      1.13    0.25    1.00
  YS02006553YS02006556 CONDUIT    801.99     0  02:20      1.02    0.69    1.00
  YS02006556YS02006558 CONDUIT    802.96     0  02:20      1.02    0.63    1.00
  YS02006558YS02006561 CONDUIT   1169.45     0  01:59      4.14    2.58    1.00
  YS02006561YS02001783 CONDUIT   1168.83     0  01:59      2.33    0.61    1.00
  YS02163301YS02001633 CONDUIT    923.64     0  01:55      1.18    0.87    1.00
  YS02163601YS02164001 CONDUIT   1368.29     0  01:55      1.74    1.21    1.00
  YS02164001YS02001641 CONDUIT   1368.13     0  01:55      1.74    1.87    1.00
  CC-R1                PUMP       683.00     0  00:00              1.00
  CC-R2                PUMP       683.00     0  00:00              1.00
  CC-S1                PUMP       200.00     0  00:00              1.00
  CC-S2                PUMP       200.00     0  00:00              1.00
  JK-R1                PUMP      1000.00     0  00:00              1.00
  JK-R2                PUMP      1000.00     0  00:00              1.00
  JK-S                 PUMP       300.00     0  00:00              1.00
  
  
  ***************************
  Flow Classification Summary
  ***************************
  
  -------------------------------------------------------------------------------------
                      Adjusted    ---------- Fraction of Time in Flow Class ---------- 
                       /Actual         Up    Down  Sub   Sup   Up    Down  Norm  Inlet 
  Conduit               Length    Dry  Dry   Dry   Crit  Crit  Crit  Crit  Ltd   Ctrl  
  -------------------------------------------------------------------------------------
  1                       1.00   0.00  0.00  0.00  0.00  1.00  0.00  0.00  0.41  0.00
  WS02003060WS02003069    1.00   0.00  0.00  0.00  0.98  0.02  0.00  0.00  0.64  0.00
  WS02003066WSF200        1.00   0.13  0.00  0.00  0.00  0.87  0.00  0.00  0.76  0.00
  WS02003067WS02003066    1.00   0.10  0.02  0.00  0.88  0.00  0.00  0.00  0.00  0.00
  WS02003069WS02003072    1.00   0.00  0.00  0.00  0.99  0.01  0.00  0.00  0.72  0.00
  WS02003072WS02003073    1.00   0.00  0.00  0.00  0.00  0.00  0.00  1.00  0.00  0.00
  WS02004401WS02004402    1.00   0.02  0.00  0.00  0.98  0.00  0.00  0.00  0.00  0.00
  WS02004402WS02004403    1.00   0.02  0.00  0.00  0.97  0.00  0.00  0.00  0.00  0.00
  WS02004403WS02004404    1.00   0.00  0.03  0.00  0.97  0.00  0.00  0.00  0.00  0.00
  WS02004404WS02004405    1.00   0.00  0.00  0.00  1.00  0.00  0.00  0.00  0.00  0.00
  WS02004405WS02004406    1.00   0.00  0.00  0.00  1.00  0.00  0.00  0.00  0.00  0.00
  WS02004406WS02004407    1.00   0.00  0.05  0.00  0.95  0.00  0.00  0.00  0.00  0.00
  WS02004407WS02004409    1.00   0.05  0.00  0.00  0.94  0.01  0.00  0.00  0.94  0.00
  WS02004409WS02004410    1.00   0.05  0.00  0.00  0.95  0.00  0.00  0.00  0.03  0.00
  WS02004410WS02004411    1.00   0.05  0.00  0.00  0.95  0.00  0.00  0.00  0.01  0.00
  WS02004411WS02004412    1.00   0.05  0.00  0.00  0.95  0.00  0.00  0.00  0.00  0.00
  WS02004412WS02004413    1.00   0.05  0.00  0.00  0.94  0.00  0.00  0.00  0.01  0.00
  WS02004413WS02003067    1.00   0.06  0.04  0.00  0.00  0.00  0.90  0.00  0.00  0.00
  WS02006109WS02006110    1.00   0.00  0.01  0.00  0.98  0.00  0.01  0.00  0.00  0.00
  WS02006110WS02006113    1.00   0.01  0.01  0.00  0.98  0.00  0.00  0.00  0.00  0.00
  WS02006111WS02006112    1.00   0.02  0.00  0.00  0.98  0.00  0.00  0.00  0.98  0.00
  WS02006112WS02006115    1.00   0.02  0.00  0.00  0.97  0.00  0.00  0.00  0.00  0.00
  WS02006113WS02006111    1.00   0.02  0.00  0.00  0.00  0.98  0.00  0.00  0.15  0.00
  WS02006115WS02006116    1.00   0.02  0.00  0.00  0.97  0.00  0.00  0.01  0.00  0.00
  WS02006116WS02004401    1.00   0.02  0.00  0.00  0.98  0.00  0.00  0.00  0.00  0.00
  WS02006228WS02006109    1.00   0.00  0.00  0.00  1.00  0.00  0.00  0.00  0.00  0.00
  WS02006229WS02006228    1.00   0.00  0.00  0.00  0.99  0.00  0.00  0.01  0.00  0.00
  WS02006230WS02006229    1.00   0.00  0.00  0.00  0.99  0.00  0.00  0.01  0.01  0.00
  WS02006231WS02006230    1.00   0.00  0.00  0.00  0.29  0.00  0.70  0.00  0.00  0.00
  WS02006232WS02006231    1.00   0.00  0.00  0.00  0.99  0.00  0.01  0.00  0.00  0.00
  WS02006234WS02006232    1.00   0.00  0.00  0.00  1.00  0.00  0.00  0.00  0.12  0.00
  WS02006235WS02006234    1.00   0.00  0.00  0.00  0.81  0.00  0.19  0.00  0.00  0.00
  WS02006238WS02006235    1.00   0.00  0.00  0.00  1.00  0.00  0.00  0.00  0.00  0.00
  WS02006239WS02006238    1.00   0.00  0.00  0.00  1.00  0.00  0.00  0.00  0.26  0.00
  WS02006240WS02006239    1.00   0.00  0.00  0.00  0.64  0.00  0.00  0.35  0.02  0.00
  WS02006242WS02006240    1.00   0.00  0.00  0.00  0.99  0.00  0.01  0.00  0.00  0.00
  WS02006243WS02006242    1.00   0.00  0.00  0.00  0.99  0.00  0.00  0.01  0.46  0.00
  WS02006245WS02006243    1.00   0.00  0.00  0.00  0.73  0.00  0.00  0.26  0.01  0.00
  WS02006247WS02006245    1.00   0.00  0.00  0.00  0.98  0.00  0.00  0.02  0.00  0.00
  WS02006248WS02006247    1.00   0.00  0.00  0.00  0.99  0.00  0.00  0.01  0.23  0.00
  WS02006249WS02006248    1.00   0.00  0.00  0.00  0.54  0.00  0.46  0.00  0.00  0.00
  WS02006251WS02006249    1.00   0.00  0.00  0.00  0.99  0.01  0.00  0.00  0.48  0.00
  WS02006252WS02006251    1.00   0.00  0.51  0.00  0.11  0.00  0.37  0.00  0.00  0.00
  WS02006256WS02006235    1.00   0.00  0.00  0.00  0.99  0.01  0.00  0.00  0.00  0.00
  WSF200WS02003060        1.00   0.00  0.13  0.00  0.29  0.59  0.00  0.00  0.40  0.00
  YS02001580YS02001583    1.00   0.23  0.57  0.00  0.20  0.00  0.00  0.00  0.66  0.00
  YS02001583YS02001586    1.00   0.42  0.33  0.00  0.25  0.00  0.00  0.00  0.66  0.00
  YS02001586YS02001590    1.00   0.13  0.00  0.00  0.43  0.04  0.00  0.40  0.36  0.00
  YS02001590YS02001593    1.00   0.13  0.01  0.00  0.12  0.00  0.75  0.00  0.00  0.00
  YS02001593YS02001596    1.00   0.13  0.00  0.00  0.14  0.01  0.00  0.72  0.02  0.00
  YS02001596YS02001600    1.00   0.14  0.00  0.00  0.20  0.01  0.00  0.65  0.04  0.00
  YS02001600YS02001601    1.00   0.13  0.01  0.00  0.86  0.00  0.00  0.00  0.60  0.00
  YS02001601YS02001602    1.00   0.13  0.01  0.00  0.87  0.00  0.00  0.00  0.00  0.00
  YS02001602YS02001605    1.00   0.13  0.00  0.00  0.86  0.00  0.00  0.00  0.00  0.00
  YS02001605YS02001607    1.00   0.14  0.00  0.00  0.86  0.00  0.00  0.00  0.00  0.00
  YS02001607YS02001610    1.00   0.13  0.01  0.00  0.86  0.00  0.00  0.00  0.01  0.00
  YS02001610YS02001613    1.00   0.13  0.00  0.00  0.87  0.00  0.00  0.00  0.00  0.00
  YS02001613YS02001616    1.00   0.13  0.00  0.00  0.87  0.00  0.00  0.00  0.00  0.00
  YS02001616YS02001619    1.00   0.13  0.00  0.00  0.87  0.00  0.00  0.00  0.00  0.00
  YS02001619YS02001622    1.00   0.13  0.00  0.00  0.87  0.00  0.00  0.00  0.29  0.00
  YS02001622YS02001625    1.00   0.13  0.00  0.00  0.87  0.00  0.00  0.00  0.04  0.00
  YS02001625YS02001629    1.00   0.13  0.05  0.00  0.16  0.00  0.66  0.00  0.00  0.00
  YS02001629YS02163301    1.00   0.15  0.01  0.00  0.84  0.00  0.00  0.00  0.00  0.00
  YS02001633YS02163601    1.00   0.00  0.01  0.00  0.99  0.00  0.00  0.00  0.15  0.00
  YS02001641YS02001644    1.00   0.00  0.01  0.00  0.99  0.00  0.00  0.00  0.00  0.00
  YS02001644YS02001647    1.00   0.00  0.17  0.00  0.83  0.00  0.00  0.00  0.00  0.00
  YS02001647YS02001649    1.00   0.00  0.17  0.00  0.54  0.29  0.00  0.00  0.56  0.00
  YS02001649YS02001757    1.00   0.00  0.00  0.00  0.85  0.15  0.00  0.00  0.42  0.00
  YS02001652YS02001649    1.00   0.00  0.00  0.00  0.97  0.03  0.00  0.00  0.74  0.00
  YS02001655YS02001652    1.00   0.00  0.00  0.00  0.19  0.01  0.00  0.80  0.05  0.00
  YS02001658YS02001655    1.00   0.00  0.14  0.00  0.67  0.19  0.00  0.00  0.68  0.00
  YS02001661YS02001658    1.00   0.14  0.00  0.00  0.51  0.35  0.00  0.00  0.69  0.00
  YS02001664YS02001661    1.00   0.13  0.00  0.00  0.77  0.10  0.00  0.00  0.85  0.00
  YS02001745YS02001748    1.00   0.00  0.00  0.00  0.10  0.01  0.00  0.89  0.05  0.00
  YS02001748YS02001751    1.00   0.00  0.00  0.00  0.83  0.17  0.00  0.00  0.77  0.00
  YS02001751YS02001754    1.00   0.00  0.00  0.00  0.16  0.01  0.00  0.83  0.02  0.00
  YS02001754YS02001757    1.00   0.00  0.00  0.00  1.00  0.00  0.00  0.00  0.83  0.00
  YS02001757CaochengTiaoxuchi    1.00   0.00  0.00  0.00  1.00  0.00  0.00  0.00  0.65  0.00
  YS02001759YS02001757    1.00   0.00  0.00  0.00  1.00  0.00  0.00  0.00  0.52  0.00
  YS02001762YS02001759    1.00   0.00  0.00  0.00  1.00  0.00  0.00  0.00  0.06  0.00
  YS02001765YS02001762    1.00   0.00  0.00  0.00  1.00  0.00  0.00  0.00  0.67  0.00
  YS02001767YS02001765    1.00   0.00  0.00  0.00  1.00  0.00  0.00  0.00  0.01  0.00
  YS02001770YS02001767    1.00   0.00  0.00  0.00  1.00  0.00  0.00  0.00  0.00  0.00
  YS02001774YS02001770    1.00   0.00  0.13  0.00  0.70  0.00  0.17  0.00  0.03  0.00
  YS02001779YS02001774    1.00   0.00  0.00  0.00  1.00  0.00  0.00  0.00  0.78  0.00
  YS02001783YS02001784    1.00   0.00  0.18  0.00  0.82  0.00  0.00  0.00  0.55  0.00
  YS02001784YS02001785    1.00   0.00  0.00  0.00  1.00  0.00  0.00  0.00  0.17  0.00
  YS02001786YS02001788    1.00   0.00  0.00  0.00  0.79  0.21  0.00  0.00  0.00  0.00
  YS02001788YS02001790    1.00   0.00  0.00  0.00  0.21  0.79  0.00  0.00  0.80  0.00
  YS02001790YS02001791    1.00   0.00  0.00  0.00  0.01  0.99  0.00  0.00  0.16  0.00
  YS02001791YS02001793    1.00   0.00  0.00  0.00  0.00  1.00  0.00  0.00  0.01  0.00
  YS02001793JiankangQianchi    1.00   0.00  0.00  0.00  0.98  0.02  0.00  0.00  0.96  0.00
  YS02001882YS02001884    1.00   0.15  0.01  0.00  0.84  0.00  0.00  0.00  0.00  0.00
  YS02001884YS02001887    1.00   0.06  0.05  0.00  0.89  0.00  0.00  0.00  0.00  0.00
  YS02001887YS02001890    1.00   0.00  0.00  0.00  0.97  0.00  0.03  0.00  0.00  0.00
  YS02001890YS02001895    1.00   0.00  0.16  0.00  0.84  0.00  0.00  0.00  0.00  0.00
  YS02001895YS02001898    1.00   0.16  0.00  0.00  0.82  0.00  0.02  0.00  0.00  0.00
  YS02001898YS02001901    1.00   0.17  0.00  0.00  0.83  0.00  0.00  0.00  0.01  0.00
  YS02001901YS02001904    1.00   0.17  0.00  0.00  0.83  0.00  0.00  0.00  0.00  0.00
  YS02001904YS02001907    1.00   0.00  0.16  0.00  0.83  0.00  0.00  0.00  0.00  0.00
  YS02001907YS02006553    1.00   0.00  0.02  0.00  0.98  0.00  0.00  0.00  0.00  0.00
  YS02001910YS02001907    1.00   0.00  0.00  0.00  0.97  0.00  0.00  0.03  0.12  0.00
  YS02001915YS02001910    1.00   0.00  0.00  0.00  0.97  0.03  0.00  0.00  0.16  0.00
  YS02001918YS02001915    1.00   0.00  0.01  0.00  0.98  0.02  0.00  0.00  0.75  0.00
  YS02001920YS02001918    1.00   0.00  0.01  0.00  0.99  0.00  0.00  0.00  0.00  0.00
  YS02001923YS02001920    1.00   0.00  0.00  0.00  1.00  0.00  0.00  0.00  0.92  0.00
  YS02001926YS02001923    1.00   0.00  0.07  0.00  0.06  0.00  0.86  0.00  0.00  0.00
  YS02001929YS02001926    1.00   0.00  0.13  0.00  0.87  0.00  0.00  0.00  0.82  0.00
  YS02006553YS02006556    1.00   0.01  0.00  0.00  0.99  0.00  0.00  0.00  0.03  0.00
  YS02006556YS02006558    1.00   0.00  0.00  0.00  1.00  0.00  0.00  0.00  0.00  0.00
  YS02006558YS02006561    1.00   0.18  0.00  0.00  0.06  0.76  0.00  0.00  0.19  0.00
  YS02006561YS02001783    1.00   0.18  0.00  0.00  0.09  0.73  0.00  0.00  0.69  0.00
  YS02163301YS02001633    1.00   0.00  0.15  0.00  0.85  0.00  0.00  0.00  0.00  0.00
  YS02163601YS02164001    1.00   0.00  0.08  0.00  0.92  0.00  0.00  0.00  0.00  0.00
  YS02164001YS02001641    1.00   0.01  0.07  0.00  0.92  0.00  0.00  0.00  0.05  0.00
  
  
  *************************
  Conduit Surcharge Summary
  *************************
  
  ----------------------------------------------------------------------------
                                                           Hours        Hours 
                         --------- Hours Full --------   Above Full   Capacity
  Conduit                Both Ends  Upstream  Dnstream   Normal Flow   Limited
  ----------------------------------------------------------------------------
  WS02003072WS02003073        0.01      0.01      0.01      1.17         0.01
  WS02004404WS02004405        0.01      0.01      0.01      3.97         0.01
  WS02004405WS02004406        0.01      0.01      0.01      0.70         0.01
  WS02006109WS02006110        0.72      0.72      2.05      0.83         0.01
  WS02006110WS02006113        0.01      0.01      1.95      0.01         0.01
  WS02006111WS02006112        0.01      0.01      2.75      0.01         0.01
  WS02006112WS02006115        0.01      0.01      0.77      0.01         0.01
  WS02006228WS02006109        1.87      2.04      1.87      3.15         1.87
  WS02006229WS02006228        1.86      1.89      1.86      2.60         1.86
  WS02006230WS02006229        2.20      2.49      2.20      4.48         2.19
  WS02006231WS02006230        0.73      0.73      0.90      4.21         0.01
  WS02006232WS02006231        0.85      0.85      2.04      0.92         0.01
  WS02006234WS02006232        1.83      1.83      2.04      0.90         0.89
  WS02006235WS02006234        1.13      1.14      1.85      4.11         0.02
  WS02006238WS02006235        1.89      1.89      2.06      0.01         0.01
  WS02006239WS02006238        1.95      2.03      1.95      2.38         1.79
  WS02006240WS02006239        1.88      1.94      1.88      2.36         1.67
  WS02006242WS02006240        1.91      1.91      2.20      2.64         0.01
  WS02006243WS02006242        1.96      1.96      2.09      0.01         0.04
  WS02006245WS02006243        1.94      1.96      1.94      1.58         1.23
  WS02006247WS02006245        1.94      2.00      1.94      3.85         1.93
  WS02006248WS02006247        1.94      1.94      1.98      0.01         0.04
  WS02006249WS02006248        1.92      1.92      1.96      3.82         0.01
  WS02006251WS02006249        1.95      1.97      1.96      2.43         1.88
  WS02006252WS02006251        2.49      2.49      2.50      2.50         0.01
  WS02006256WS02006235        4.10      4.14      5.89      1.24         0.01
  YS02001580YS02001583        0.64      0.64      0.69      0.01         0.01
  YS02001583YS02001586        0.65      0.65      0.77      0.01         0.01
  YS02001586YS02001590        0.78      0.78      0.84      0.01         0.01
  YS02001590YS02001593        0.85      0.85      0.87      0.89         0.01
  YS02001593YS02001596        0.86      0.86      0.96      0.01         0.01
  YS02001596YS02001600        1.01      1.01      1.12      0.01         0.01
  YS02001600YS02001601        1.18      1.18      1.45      0.01         0.01
  YS02001601YS02001602        1.36      1.36      1.49      1.12         0.01
  YS02001602YS02001605        1.31      1.31      1.36      2.27         0.01
  YS02001605YS02001607        1.27      1.31      1.27      1.42         1.27
  YS02001607YS02001610        0.83      0.83      0.86      0.01         0.01
  YS02001610YS02001613        0.82      0.82      0.86      0.01         0.01
  YS02001613YS02001616        0.78      0.78      0.82      0.01         0.01
  YS02001616YS02001619        0.77      0.77      0.78      0.01         0.04
  YS02001619YS02001622        0.76      0.77      0.76      0.85         0.73
  YS02001622YS02001625        0.76      0.76      0.95      0.01         0.01
  YS02001625YS02001629        0.72      0.72      0.95      0.01         0.01
  YS02001629YS02163301        0.95      0.95      0.96      0.14         0.16
  YS02001633YS02163601        0.97      0.97      1.01      0.34         0.33
  YS02001641YS02001644        0.89      0.92      0.89      1.52         0.88
  YS02001644YS02001647        0.68      0.68      0.89      0.03         0.01
  YS02001647YS02001649        0.68      0.68      0.81      0.01         0.01
  YS02001649YS02001757        0.80      0.81      0.88      0.07         0.04
  YS02001652YS02001649        0.63      0.63      0.81      0.01         0.01
  YS02001655YS02001652        0.44      0.44      0.60      0.01         0.01
  YS02001658YS02001655        0.24      0.24      0.44      0.01         0.01
  YS02001661YS02001658        0.08      0.08      0.24      0.01         0.01
  YS02001664YS02001661        0.01      0.01      0.12      0.01         0.01
  YS02001745YS02001748        0.01      0.01      0.19      0.01         0.01
  YS02001748YS02001751        0.22      0.22      0.32      0.01         0.01
  YS02001751YS02001754        0.32      0.32      0.51      0.01         0.01
  YS02001754YS02001757        0.55      0.55      0.88      0.01         0.01
  YS02001757CaochengTiaoxuchi        0.87      0.88      1.87      0.39         0.36
  YS02001759YS02001757        0.78      0.78      0.88      0.01         0.02
  YS02001762YS02001759        0.74      0.74      0.78      0.01         0.02
  YS02001765YS02001762        0.70      0.70      0.74      0.01         0.01
  YS02001767YS02001765        0.66      0.66      0.70      0.01         0.02
  YS02001770YS02001767        0.66      0.66      0.66      0.55         0.46
  YS02001774YS02001770        0.63      0.63      0.72      0.01         0.01
  YS02001779YS02001774        0.50      0.50      0.72      0.01         0.01
  YS02001783YS02001784        0.53      0.56      0.53      0.70         0.53
  YS02001784YS02001785        0.43      0.53      0.43      0.94         0.43
  YS02001786YS02001788        0.01      0.43      0.01      0.80         0.01
  YS02001790YS02001791        0.01      0.01      0.01      0.52         0.01
  YS02001793JiankangQianchi        0.01      0.01      7.51      0.01         0.01
  YS02001882YS02001884        0.50      0.50      0.51      0.01         0.01
  YS02001884YS02001887        0.53      0.53      0.55      0.01         0.01
  YS02001887YS02001890        0.56      0.56      0.57      0.14         0.01
  YS02001890YS02001895        0.49      0.49      0.59      0.01         0.01
  YS02001895YS02001898        0.49      0.49      0.49      0.01         0.01
  YS02001898YS02001901        0.49      0.49      0.53      0.01         0.01
  YS02001901YS02001904        0.52      0.52      0.53      0.01         0.01
  YS02001904YS02001907        0.52      0.52      0.79      0.01         0.01
  YS02001907YS02006553        0.95      0.95      1.02      0.01         0.01
  YS02001910YS02001907        0.59      0.59      0.76      0.01         0.01
  YS02001915YS02001910        0.50      0.50      0.59      0.01         0.01
  YS02001918YS02001915        0.42      0.42      0.50      0.01         0.01
  YS02001920YS02001918        0.42      0.42      0.43      0.01         0.01
  YS02001923YS02001920        0.37      0.37      0.43      0.01         0.01
  YS02001926YS02001923        0.14      0.14      0.16      0.01         0.01
  YS02001929YS02001926        0.01      0.01      0.16      0.01         0.01
  YS02006553YS02006556        0.68      0.68      0.79      0.01         0.01
  YS02006556YS02006558        0.73      0.73      0.80      0.01         0.01
  YS02006558YS02006561        0.45      0.67      0.45      0.89         0.45
  YS02006561YS02001783        0.39      0.39      0.56      0.01         0.01
  YS02163301YS02001633        0.96      0.96      0.99      0.01         0.01
  YS02163601YS02164001        0.92      0.92      1.01      0.06         0.01
  YS02164001YS02001641        0.92      0.92      0.92      0.71         0.65
  
  
  ***************
  Pumping Summary
  ***************
  
  ---------------------------------------------------------------------------------------------------------
                                                  Min       Avg       Max     Total     Power    % Time Off
                        Percent   Number of      Flow      Flow      Flow    Volume     Usage    Pump Curve
  Pump                 Utilized   Start-Ups       LPS       LPS       LPS  10^6 ltr     Kw-hr    Low   High
  ---------------------------------------------------------------------------------------------------------
  CC-R1                   16.29           3      0.00    683.00    683.00     3.203     60.27    0.0   11.7
  CC-R2                   18.54           2      0.00    683.00    683.00     3.647     68.27    0.0   11.5
  CC-S1                   46.98           8      0.00    200.00    200.00     2.706     16.16    0.0    0.0
  CC-S2                   32.90          12      0.00    200.00    200.00     1.895     11.29    0.0    0.0
  JK-R1                    6.22          12      0.00   1000.00   1000.00     1.793     19.45    0.0    0.0
  JK-R2                    3.26           6      0.00   1000.00   1000.00     0.938      9.98    0.0    0.0
  JK-S                    15.46          15      0.00    300.00    300.00     1.336     20.65    0.0    0.0
  

  Analysis begun on:  Mon Apr 14 21:00:53 2025
  Analysis ended on:  Mon Apr 14 21:00:55 2025
  Total elapsed time: 00:00:02