
  EPA STORM WATER MANAGEMENT MODEL - VERSION 5.2 (Build 5.2.4)
  PYSWMM TOOLKIT API - VERSION v1.0 (2023-11-27)
  ------------------------------------------------------------

  WARNING 04: minimum elevation drop used for Conduit WS02004404WS02004405
  WARNING 03: negative offset ignored for Link YS02001904YS02001907
  
  ****************
  Analysis Options
  ****************
  Flow Units ............... LPS
  Process Models:
    Rainfall/Runoff ........ YES
    RDII ................... NO
    Snowmelt ............... NO
    Groundwater ............ NO
    Flow Routing ........... YES
    Ponding Allowed ........ NO
    Water Quality .......... NO
  Infiltration Method ...... HORTON
  Flow Routing Method ...... DYNWAVE
  Surcharge Method ......... EXTRAN
  Starting Date ............ 08/28/2015 08:00:00
  Ending Date .............. 08/28/2015 16:00:00
  Antecedent Dry Days ...... 8.0
  Report Time Step ......... 00:01:00
  Wet Time Step ............ 00:01:00
  Dry Time Step ............ 00:01:00
  Routing Time Step ........ 30.00 sec
  Variable Time Step ....... YES
  Maximum Trials ........... 8
  Number of Threads ........ 4
  Head Tolerance ........... 0.001500 m
  
  
  **************************        Volume         Depth
  Runoff Quantity Continuity     hectare-m            mm
  **************************     ---------       -------
  Total Precipitation ......         3.551       107.049
  Evaporation Loss .........         0.000         0.000
  Infiltration Loss ........         0.104         3.133
  Surface Runoff ...........         3.415       102.949
  Final Storage ............         0.033         0.996
  Continuity Error (%) .....        -0.027
  
  
  **************************        Volume        Volume
  Flow Routing Continuity        hectare-m      10^6 ltr
  **************************     ---------     ---------
  Dry Weather Inflow .......         0.025         0.251
  Wet Weather Inflow .......         3.415        34.149
  Groundwater Inflow .......         0.000         0.000
  RDII Inflow ..............         0.000         0.000
  External Inflow ..........         0.083         0.834
  External Outflow .........         1.959        19.590
  Flooding Loss ............         1.616        16.165
  Evaporation Loss .........         0.000         0.000
  Exfiltration Loss ........         0.000         0.000
  Initial Stored Volume ....         0.243         2.431
  Final Stored Volume ......         0.196         1.962
  Continuity Error (%) .....        -0.140
  
  
  *************************
  Highest Continuity Errors
  *************************
  Node YS02001884 (4.92%)
  Node YS02001583 (-4.44%)
  
  
  ***************************
  Time-Step Critical Elements
  ***************************
  Link WS02006252WS02006251 (45.44%)
  Link WS02006238WS02006235 (14.03%)
  Link WS02004404WS02004405 (9.88%)
  Link YS02001791YS02001793 (8.90%)
  Link WS02006235WS02006234 (8.08%)
  
  
  ********************************
  Highest Flow Instability Indexes
  ********************************
  Link WS02006113WS02006111 (52)
  Link WS02006111WS02006112 (26)
  Link WS02006238WS02006235 (18)
  Link WS02006252WS02006251 (16)
  Link WS02006256WS02006235 (15)
  
  
  *********************************
  Most Frequent Nonconverging Nodes
  *********************************
  Node CC-1 (11.40%)
  Node CC-2 (11.40%)
  Node JK-1 (11.40%)
  Node JK-2 (11.40%)
  Node WSC (11.40%)
  
  
  *************************
  Routing Time Step Summary
  *************************
  Minimum Time Step           :     0.02 sec
  Average Time Step           :     1.83 sec
  Maximum Time Step           :     7.04 sec
  % of Time in Steady State   :     0.00
  Average Iterations per Step :     3.09
  % of Steps Not Converging   :    11.40
  Time Step Frequencies       :
     30.000 - 13.228 sec      :     0.00 %
     13.228 -  5.833 sec      :     6.91 %
      5.833 -  2.572 sec      :    16.92 %
      2.572 -  1.134 sec      :    24.40 %
      1.134 -  0.500 sec      :    51.77 %
  
  
  ***************************
  Subcatchment Runoff Summary
  ***************************
  
  ------------------------------------------------------------------------------------------------------------------------------
                            Total      Total      Total      Total     Imperv       Perv      Total       Total     Peak  Runoff
                           Precip      Runon       Evap      Infil     Runoff     Runoff     Runoff      Runoff   Runoff   Coeff
  Subcatchment                 mm         mm         mm         mm         mm         mm         mm    10^6 ltr      LPS
  ------------------------------------------------------------------------------------------------------------------------------
  sub60                    107.05       0.00       0.00       1.88      93.02      10.97     103.98        1.37   974.82   0.971
  sub61                    107.05       0.00       0.00       2.73      87.74      15.48     103.21        1.89  1354.25   0.964
  sub62                    107.05       0.00       0.00       1.25      97.21       7.31     104.53        2.86  1904.89   0.976
  sub63                    107.05       0.00       0.00       5.02      75.05      26.03     101.08        2.29  1533.11   0.944
  sub64                    107.05       0.00       0.00       2.54      89.80      13.52     103.32        2.48  1558.36   0.965
  sub65                    107.05       0.00       0.00       2.20      91.89      11.72     103.61        2.85  1746.80   0.968
  sub66                    107.05       0.00       0.00       6.21      74.94      24.84      99.77        4.65  2323.58   0.932
  sub67                    107.05       0.00       0.00       1.21      97.26       7.36     104.62        1.95  1451.70   0.977
  sub68                    107.05       0.00       0.00       2.26      90.89      12.73     103.62        2.85  1958.55   0.968
  sub69                    107.05       0.00       0.00       2.03      90.89      14.03     104.92        3.88  2322.10   0.980
  sub70                    107.05       0.00       0.00       6.77      70.49      29.63     100.13        2.89  1300.79   0.935
  sub71                    107.05       0.00       0.00       1.29      97.17       7.28     104.45        2.73  1684.40   0.976
  sub72                    107.05       0.00       0.00       1.14      98.16       6.35     104.51        1.44   818.30   0.976
  
  
  ******************
  Node Depth Summary
  ******************
  
  ---------------------------------------------------------------------------------
                                 Average  Maximum  Maximum  Time of Max    Reported
                                   Depth    Depth      HGL   Occurrence   Max Depth
  Node                 Type       Meters   Meters   Meters  days hr:min      Meters
  ---------------------------------------------------------------------------------
  WS02003060           JUNCTION     0.26     0.38     5.32     0  02:22        0.38
  WS02003066           JUNCTION     0.21     0.30     5.85     0  02:22        0.30
  WS02003067           JUNCTION     0.53     0.70     6.02     0  02:22        0.70
  WS02003069           JUNCTION     0.28     0.43     5.01     0  02:15        0.43
  WS02003072           JUNCTION     0.35     0.50     4.87     0  02:15        0.50
  WS02003073           JUNCTION     0.20     0.30     4.36     0  02:16        0.30
  WS02004401           JUNCTION     0.62     0.85     6.85     0  02:19        0.85
  WS02004402           JUNCTION     0.65     0.88     6.84     0  02:19        0.88
  WS02004403           JUNCTION     0.68     0.89     6.82     0  02:19        0.89
  WS02004404           JUNCTION     0.75     0.96     6.81     0  02:19        0.96
  WS02004405           JUNCTION     0.75     0.96     6.81     0  02:20        0.96
  WS02004406           JUNCTION     0.76     0.96     6.79     0  02:20        0.96
  WS02004407           JUNCTION     0.19     0.30     6.61     0  02:20        0.30
  WS02004409           JUNCTION     0.43     0.67     6.44     0  02:20        0.67
  WS02004410           JUNCTION     0.45     0.68     6.40     0  02:20        0.68
  WS02004411           JUNCTION     0.47     0.69     6.37     0  02:21        0.69
  WS02004412           JUNCTION     0.49     0.70     6.34     0  02:21        0.70
  WS02004413           JUNCTION     0.65     0.86     6.33     0  02:21        0.86
  WS02006109           JUNCTION     0.69     1.14     7.76     0  02:21        0.99
  WS02006110           JUNCTION     0.69     1.22     7.81     0  02:56        0.94
  WS02006111           JUNCTION     0.19     0.29     6.99     0  02:28        0.29
  WS02006112           JUNCTION     0.78     1.10     6.99     0  02:38        1.09
  WS02006113           JUNCTION     0.30     0.46     7.35     0  02:28        0.45
  WS02006115           JUNCTION     0.51     0.75     6.89     0  02:11        0.75
  WS02006116           JUNCTION     0.59     0.83     6.87     0  02:11        0.83
  WS02006228           JUNCTION     0.69     1.20     7.85     0  02:37        1.03
  WS02006229           JUNCTION     0.66     1.24     7.93     0  02:37        1.03
  WS02006230           JUNCTION     0.67     1.43     8.18     0  02:21        1.16
  WS02006231           JUNCTION     0.46     1.32     8.44     0  02:37        0.92
  WS02006232           JUNCTION     0.61     1.38     8.42     0  02:37        1.15
  WS02006234           JUNCTION     0.53     1.70     8.85     0  02:55        1.16
  WS02006235           JUNCTION     0.57     2.00     9.16     0  02:55        1.34
  WS02006238           JUNCTION     0.60     2.15     9.29     0  03:22        2.15
  WS02006239           JUNCTION     0.57     2.03     9.24     0  02:55        1.35
  WS02006240           JUNCTION     0.54     1.86     9.15     0  02:55        1.30
  WS02006242           JUNCTION     0.61     1.55     8.82     0  02:55        1.32
  WS02006243           JUNCTION     0.52     1.44     8.86     0  02:55        1.22
  WS02006245           JUNCTION     0.52     1.35     8.83     0  02:55        1.20
  WS02006247           JUNCTION     0.54     1.28     8.78     0  02:55        1.20
  WS02006248           JUNCTION     0.50     1.10     8.69     0  01:55        1.10
  WS02006249           JUNCTION     0.53     1.09     8.69     0  01:44        1.09
  WS02006251           JUNCTION     0.53     1.50     9.17     0  01:45        1.50
  WS02006252           JUNCTION     0.38     1.50     9.74     0  00:00        1.08
  WS02006256           JUNCTION     1.07     2.35     9.28     0  00:00        2.35
  WSF200               JUNCTION     0.19     0.29     5.52     0  02:22        0.29
  YS02001580           JUNCTION     0.12     1.05     9.59     0  01:39        0.81
  YS02001583           JUNCTION     0.15     1.14     9.64     0  01:39        0.82
  YS02001586           JUNCTION     0.23     1.13     9.30     0  01:39        1.13
  YS02001590           JUNCTION     0.33     1.40     9.26     0  01:39        1.40
  YS02001593           JUNCTION     0.27     1.34     9.20     0  01:39        1.29
  YS02001596           JUNCTION     0.36     1.68     9.10     0  01:39        1.66
  YS02001600           JUNCTION     0.42     1.87     9.00     0  01:39        1.86
  YS02001601           JUNCTION     0.61     2.06     8.90     0  01:38        2.06
  YS02001602           JUNCTION     0.52     1.87     8.77     0  01:38        1.87
  YS02001605           JUNCTION     0.49     1.78     8.68     0  01:38        1.78
  YS02001607           JUNCTION     0.48     1.68     8.53     0  01:38        1.65
  YS02001610           JUNCTION     0.52     1.68     8.48     0  01:38        1.68
  YS02001613           JUNCTION     0.48     1.68     8.52     0  01:39        1.67
  YS02001616           JUNCTION     0.41     1.61     8.52     0  01:38        1.61
  YS02001619           JUNCTION     0.39     1.61     8.54     0  01:38        1.61
  YS02001622           JUNCTION     0.38     1.62     8.52     0  01:38        1.62
  YS02001625           JUNCTION     0.65     1.78     8.38     0  01:39        1.78
  YS02001629           JUNCTION     0.50     1.85     8.40     0  01:38        1.85
  YS02001633           JUNCTION     0.58     2.08     8.53     0  01:49        2.08
  YS02001641           JUNCTION     0.56     1.97     8.41     0  01:58        1.97
  YS02001644           JUNCTION     0.56     1.92     8.35     0  01:43        1.92
  YS02001647           JUNCTION     0.35     1.80     8.41     0  01:47        1.78
  YS02001649           JUNCTION     0.40     2.05     8.44     0  01:47        2.04
  YS02001652           JUNCTION     0.30     2.09     8.68     0  01:43        1.95
  YS02001655           JUNCTION     0.24     2.20     9.05     0  01:43        1.82
  YS02001658           JUNCTION     0.18     1.71     8.85     0  01:44        1.66
  YS02001661           JUNCTION     0.19     1.53     8.93     0  01:49        1.52
  YS02001664           JUNCTION     0.07     1.14     9.06     0  01:49        1.14
  YS02001745           JUNCTION     0.09     1.10     8.62     0  01:48        1.09
  YS02001748           JUNCTION     0.17     1.64     8.72     0  01:44        1.47
  YS02001751           JUNCTION     0.21     1.65     8.53     0  01:44        1.61
  YS02001754           JUNCTION     0.27     2.20     8.81     0  01:43        1.83
  YS02001757           JUNCTION     0.43     2.13     8.39     0  01:49        2.13
  YS02001759           JUNCTION     0.37     2.16     8.52     0  01:49        2.16
  YS02001762           JUNCTION     0.36     2.11     8.51     0  01:49        2.11
  YS02001765           JUNCTION     0.34     2.05     8.50     0  01:49        2.05
  YS02001767           JUNCTION     0.34     1.99     8.48     0  01:48        1.99
  YS02001770           JUNCTION     0.35     1.95     8.44     0  01:46        1.95
  YS02001774           JUNCTION     0.41     2.00     8.42     0  01:51        2.00
  YS02001779           JUNCTION     0.25     1.68     8.37     0  01:42        1.68
  YS02001783           JUNCTION     0.26     1.39     7.53     0  01:42        1.27
  YS02001784           JUNCTION     0.27     1.22     7.29     0  01:42        1.14
  YS02001786           JUNCTION     0.22     0.92     6.95     0  01:42        0.88
  YS02001788           JUNCTION     0.16     0.63     6.61     0  01:48        0.63
  YS02001790           JUNCTION     0.19     0.74     6.38     0  01:51        0.73
  YS02001791           JUNCTION     0.12     0.45     5.92     0  01:51        0.44
  YS02001793           JUNCTION     0.06     0.31     5.14     0  01:55        0.31
  YS02001882           JUNCTION     0.33     1.83     8.55     0  01:40        1.75
  YS02001884           JUNCTION     0.42     1.93     8.55     0  01:40        1.85
  YS02001887           JUNCTION     0.50     1.95     8.49     0  01:40        1.92
  YS02001890           JUNCTION     0.53     1.81     8.32     0  01:40        1.81
  YS02001895           JUNCTION     0.30     1.58     8.33     0  01:58        1.58
  YS02001898           JUNCTION     0.31     1.58     8.31     0  01:58        1.58
  YS02001901           JUNCTION     0.42     1.70     8.31     0  01:58        1.70
  YS02001904           JUNCTION     0.40     1.65     8.28     0  01:58        1.65
  YS02001907           JUNCTION     0.73     1.96     8.25     0  01:42        1.96
  YS02001910           JUNCTION     0.53     2.02     8.52     0  01:47        2.01
  YS02001915           JUNCTION     0.34     2.00     8.72     0  01:47        2.00
  YS02001918           JUNCTION     0.20     1.81     8.88     0  01:42        1.81
  YS02001920           JUNCTION     0.27     2.14     9.15     0  01:42        2.02
  YS02001923           JUNCTION     0.15     2.03     9.29     0  01:42        1.93
  YS02001926           JUNCTION     0.18     1.90     9.35     0  01:42        1.90
  YS02001929           JUNCTION     0.11     1.78     9.47     0  01:42        1.65
  YS02006553           JUNCTION     0.73     2.00     8.29     0  01:48        2.00
  YS02006556           JUNCTION     0.70     2.02     8.34     0  01:48        2.02
  YS02006558           JUNCTION     0.75     2.10     8.36     0  01:49        2.10
  YS02006561           JUNCTION     0.16     1.06     7.72     0  01:42        0.95
  YS02163301           JUNCTION     0.52     1.95     8.47     0  01:49        1.95
  YS02163601           JUNCTION     0.62     2.07     8.47     0  01:49        2.07
  YS02164001           JUNCTION     0.55     1.98     8.44     0  01:58        1.98
  CC-1                 OUTFALL      0.00     0.00     0.00     0  00:00        0.00
  CC-2                 OUTFALL      0.00     0.00     0.00     0  00:00        0.00
  JK-1                 OUTFALL      0.00     0.00     0.00     0  00:00        0.00
  JK-2                 OUTFALL      0.00     0.00     0.00     0  00:00        0.00
  WSC                  OUTFALL      0.20     0.30     0.97     0  02:16        0.30
  CC-storage           STORAGE      0.92     1.86     7.36     0  02:32        1.86
  JK-storage           STORAGE      3.16     4.23     5.03     0  02:21        4.21
  
  
  *******************
  Node Inflow Summary
  *******************
  
  -------------------------------------------------------------------------------------------------
                                  Maximum  Maximum                  Lateral       Total        Flow
                                  Lateral    Total  Time of Max      Inflow      Inflow     Balance
                                   Inflow   Inflow   Occurrence      Volume      Volume       Error
  Node                 Type           LPS      LPS  days hr:min    10^6 ltr    10^6 ltr     Percent
  -------------------------------------------------------------------------------------------------
  WS02003060           JUNCTION     16.53   553.06     0  02:22       0.476        6.77       0.031
  WS02003066           JUNCTION      0.00   536.38     0  02:22           0         6.3       0.020
  WS02003067           JUNCTION      0.00   536.36     0  02:21           0         6.3       0.065
  WS02003069           JUNCTION      0.32   553.21     0  02:23     0.00922        6.78       0.053
  WS02003072           JUNCTION      0.00   553.07     0  02:15           0        6.77       0.096
  WS02003073           JUNCTION      1.82   554.85     0  02:16      0.0524        6.82       0.078
  WS02004401           JUNCTION      0.00   537.75     0  02:00           0         6.4       0.155
  WS02004402           JUNCTION      0.00   537.18     0  02:19           0        6.39       0.158
  WS02004403           JUNCTION      0.00   537.04     0  02:19           0        6.38       0.154
  WS02004404           JUNCTION      0.16   537.11     0  02:19     0.00467        6.37       0.129
  WS02004405           JUNCTION      0.04   537.06     0  02:19      0.0011        6.37       0.193
  WS02004406           JUNCTION      0.00   537.04     0  02:20           0        6.35       0.320
  WS02004407           JUNCTION      0.00   536.89     0  02:20           0        6.33       0.015
  WS02004409           JUNCTION      0.00   536.73     0  02:20           0        6.33       0.037
  WS02004410           JUNCTION      0.00   536.63     0  02:20           0        6.33       0.063
  WS02004411           JUNCTION      0.00   536.58     0  02:21           0        6.33       0.083
  WS02004412           JUNCTION      0.00   536.48     0  02:21           0        6.32       0.113
  WS02004413           JUNCTION      0.00   536.53     0  02:21           0        6.31       0.202
  WS02006109           JUNCTION      1.23   560.30     0  02:56      0.0354        6.44       0.133
  WS02006110           JUNCTION      0.00   562.11     0  02:21           0        6.44       0.095
  WS02006111           JUNCTION      0.00   563.41     0  02:28           0        6.43       0.007
  WS02006112           JUNCTION      0.00   543.30     0  02:28           0        6.43       0.271
  WS02006113           JUNCTION      0.00   568.00     0  02:56           0        6.43       0.028
  WS02006115           JUNCTION      0.00   553.05     0  02:39           0        6.41       0.097
  WS02006116           JUNCTION      0.00   542.59     0  02:39           0         6.4       0.086
  WS02006228           JUNCTION      0.00   558.06     0  02:56           0        6.41       0.048
  WS02006229           JUNCTION      0.00   557.91     0  02:56           0        6.42       0.074
  WS02006230           JUNCTION     10.28   589.56     0  03:10       0.296        6.42       0.069
  WS02006231           JUNCTION      0.00   575.99     0  02:21           0        6.12      -0.023
  WS02006232           JUNCTION      0.00   575.13     0  02:21           0        6.13       0.121
  WS02006234           JUNCTION      0.00   570.74     0  02:21           0        6.12      -0.126
  WS02006235           JUNCTION      0.00   564.83     0  02:21           0        6.18       0.114
  WS02006238           JUNCTION      0.00   424.68     0  02:25           0        5.08      -0.169
  WS02006239           JUNCTION      0.00   423.23     0  02:40           0        5.05      -0.140
  WS02006240           JUNCTION      0.00   419.96     0  03:22           0        5.02      -0.039
  WS02006242           JUNCTION      0.00   420.31     0  03:22           0           5      -0.014
  WS02006243           JUNCTION      0.00   420.52     0  03:22           0        4.98      -0.136
  WS02006245           JUNCTION      0.00   420.25     0  02:40           0        4.99       0.236
  WS02006247           JUNCTION      0.00   420.82     0  02:40           0        4.99       0.014
  WS02006248           JUNCTION      0.00   425.43     0  03:22           0        4.99       0.025
  WS02006249           JUNCTION      0.00   474.73     0  05:30           0         5.3       0.217
  WS02006251           JUNCTION      0.08   410.39     0  01:45     0.00222         5.3       0.008
  WS02006252           JUNCTION      0.00   400.00     0  00:00           0        5.29      -0.082
  WS02006256           JUNCTION      0.00   300.00     0  00:00           0        1.65      -0.549
  WSF200               JUNCTION      0.00   536.41     0  02:22           0         6.3       0.006
  YS02001580           JUNCTION      0.00   133.60     0  01:39           0     0.00433      -1.017
  YS02001583           JUNCTION      0.00   162.69     0  01:39           0      0.0155      -4.249
  YS02001586           JUNCTION   1300.79  1300.81     0  01:52        2.89         2.9       0.043
  YS02001590           JUNCTION      0.00   318.01     0  02:21           0        1.74      -0.021
  YS02001593           JUNCTION      0.00   318.04     0  02:21           0        1.74      -0.009
  YS02001596           JUNCTION      0.00   318.06     0  02:07           0        1.74      -0.013
  YS02001600           JUNCTION      0.00   318.05     0  02:08           0        1.74       0.006
  YS02001601           JUNCTION   2322.10  2639.46     0  01:51        3.88        5.63       0.009
  YS02001602           JUNCTION      0.00   522.96     0  01:38           0        2.75       0.014
  YS02001605           JUNCTION      0.00   522.93     0  01:38           0        2.55       0.017
  YS02001607           JUNCTION      0.00   522.96     0  01:38           0        2.55       0.068
  YS02001610           JUNCTION      0.00   953.44     0  01:55           0         3.3       0.067
  YS02001613           JUNCTION      0.00   616.46     0  01:55           0         2.5       0.057
  YS02001616           JUNCTION      0.00   616.52     0  01:55           0         2.5       0.015
  YS02001619           JUNCTION   2323.58  2323.58     0  01:52        4.65         6.4      -0.002
  YS02001622           JUNCTION      0.00  1053.98     0  01:56           0        5.34      -0.003
  YS02001625           JUNCTION      0.00  1505.21     0  01:57           0        5.83       0.162
  YS02001629           JUNCTION      0.00   950.91     0  01:51           0        4.19       0.005
  YS02001633           JUNCTION   1747.00  1747.00     0  01:51        2.86        6.27       0.053
  YS02001641           JUNCTION      0.00  1383.18     0  01:41           0        5.51       0.048
  YS02001644           JUNCTION   1558.40  2863.06     0  01:50        2.48        8.13       0.039
  YS02001647           JUNCTION      0.00  1811.15     0  01:42           0        6.41       0.006
  YS02001649           JUNCTION      0.00  2070.44     0  01:42           0        8.56      -0.002
  YS02001652           JUNCTION      0.00  1535.35     0  01:50           0         2.3      -0.050
  YS02001655           JUNCTION      0.15  1534.59     0  01:50     0.00443         2.3      -0.018
  YS02001658           JUNCTION      0.00  1534.25     0  01:50           0         2.3      -0.043
  YS02001661           JUNCTION      0.00  1532.97     0  01:50           0        2.29      -0.003
  YS02001664           JUNCTION   1533.11  1533.11     0  01:50        2.29        2.29      -0.005
  YS02001745           JUNCTION    974.82   974.82     0  01:50        1.37        1.37       0.129
  YS02001748           JUNCTION      0.04   975.82     0  01:49      0.0013        1.37      -0.186
  YS02001751           JUNCTION      0.01   977.09     0  01:49    0.000317        1.37       0.058
  YS02001754           JUNCTION      0.26   977.70     0  01:49     0.00749        1.39      -0.117
  YS02001757           JUNCTION      0.00  3533.84     0  01:47           0        13.6       0.032
  YS02001759           JUNCTION   1354.29  1496.69     0  01:48         1.9        3.81      -0.011
  YS02001762           JUNCTION      0.00   777.40     0  01:44           0        1.91      -0.008
  YS02001765           JUNCTION      0.00   779.62     0  01:44           0        1.91       0.002
  YS02001767           JUNCTION      0.54   780.95     0  01:44      0.0154        1.91       0.005
  YS02001770           JUNCTION   1905.05  1905.05     0  01:50        2.87        2.92      -0.009
  YS02001774           JUNCTION      0.00   851.40     0  01:52           0       0.755       0.149
  YS02001779           JUNCTION      0.01   851.73     0  01:55    0.000144       0.708      -0.057
  YS02001783           JUNCTION      0.00  1189.25     0  01:49           0        5.27       0.004
  YS02001784           JUNCTION      1.06  1189.21     0  01:49      0.0305         5.3       0.009
  YS02001786           JUNCTION      0.06  1189.55     0  01:49     0.00162         5.3       0.012
  YS02001788           JUNCTION      0.07  1190.33     0  01:49     0.00204         5.3       0.006
  YS02001790           JUNCTION      0.15  1197.00     0  01:48     0.00446        5.31       0.033
  YS02001791           JUNCTION      0.00  1310.87     0  01:47           0        5.31      -0.037
  YS02001793           JUNCTION      0.00  1255.25     0  01:52           0        5.31       0.001
  YS02001882           JUNCTION      0.00    71.77     0  01:40           0      0.0132       3.828
  YS02001884           JUNCTION      0.00    78.86     0  01:40           0      0.0493       5.174
  YS02001887           JUNCTION   1452.15  1456.13     0  01:49        1.96        1.99       0.220
  YS02001890           JUNCTION      0.00  1457.15     0  01:49           0        1.95       0.261
  YS02001895           JUNCTION      0.00   517.24     0  01:58           0         1.5       0.117
  YS02001898           JUNCTION      0.00   517.48     0  01:50           0        1.49       0.009
  YS02001901           JUNCTION      0.00   517.43     0  01:55           0         1.5       0.219
  YS02001904           JUNCTION      0.00   517.46     0  01:57           0         1.5       0.182
  YS02001907           JUNCTION      0.00  3287.52     0  01:50           0        5.88       0.305
  YS02001910           JUNCTION      0.00  1993.03     0  01:55           0         4.1       0.172
  YS02001915           JUNCTION   1684.42  2504.59     0  01:51        2.73        4.29       0.034
  YS02001918           JUNCTION      0.00   823.68     0  01:51           0        1.59       0.005
  YS02001920           JUNCTION      2.87   823.05     0  01:51      0.0827        1.57       0.054
  YS02001923           JUNCTION      0.04   818.97     0  01:51     0.00109        1.47      -0.062
  YS02001926           JUNCTION      0.05   819.07     0  01:51      0.0015        1.45      -0.063
  YS02001929           JUNCTION    818.30   818.30     0  01:51        1.44        1.44      -0.021
  YS02006553           JUNCTION      0.00   793.50     0  02:17           0        3.01       0.397
  YS02006556           JUNCTION      0.00   793.99     0  02:17           0        3.02       0.260
  YS02006558           JUNCTION   1959.43  1959.43     0  01:50        2.88        5.59       0.062
  YS02006561           JUNCTION      0.00  1187.99     0  01:49           0        5.27      -0.003
  YS02163301           JUNCTION      0.00   951.97     0  01:51           0        4.18       0.029
  YS02163601           JUNCTION      0.11  1386.59     0  01:41     0.00317         5.5       0.084
  YS02164001           JUNCTION      0.00  1384.92     0  01:41           0         5.5       0.029
  CC-1                 OUTFALL       0.00   683.00     0  00:00           0        4.68       0.000
  CC-2                 OUTFALL       0.00   683.00     0  00:00           0        4.46       0.000
  JK-1                 OUTFALL       0.00  1000.00     0  00:00           0        2.94       0.000
  JK-2                 OUTFALL       0.00  1000.00     0  00:00           0       0.693       0.000
  WSC                  OUTFALL       0.00   554.84     0  02:16           0        6.81       0.000
  CC-storage           STORAGE       0.00  3533.49     0  01:47           0        15.8      -0.194
  JK-storage           STORAGE       0.00  1257.12     0  01:52           0        5.46       0.080
  
  
  **********************
  Node Surcharge Summary
  **********************
  
  Surcharging occurs when water rises above the top of the highest conduit.
  ---------------------------------------------------------------------
                                               Max. Height   Min. Depth
                                   Hours       Above Crown    Below Rim
  Node                 Type      Surcharged         Meters       Meters
  ---------------------------------------------------------------------
  WS02006109           JUNCTION        2.45          0.320        1.500
  WS02006110           JUNCTION        1.02          0.313        1.537
  WS02006112           JUNCTION        1.10          0.103        1.577
  WS02006228           JUNCTION        2.43          0.365        1.835
  WS02006229           JUNCTION        2.46          0.440        2.010
  WS02006230           JUNCTION        1.03          0.352        1.218
  WS02006231           JUNCTION        1.16          0.606        0.924
  WS02006232           JUNCTION        2.58          0.676        0.804
  WS02006234           JUNCTION        1.45          0.975        0.265
  WS02006235           JUNCTION        2.43          1.286        0.004
  WS02006238           JUNCTION        2.50          1.430        0.000
  WS02006239           JUNCTION        2.44          1.287        0.003
  WS02006240           JUNCTION        2.46          1.151        0.239
  WS02006242           JUNCTION        2.60          0.820        0.000
  WS02006243           JUNCTION        2.47          0.728        0.042
  WS02006245           JUNCTION        2.46          0.638        0.212
  WS02006247           JUNCTION        2.48          0.571        0.189
  WS02006248           JUNCTION        2.45          0.380        0.000
  WS02006249           JUNCTION        2.46          0.390        0.000
  WS02006251           JUNCTION        1.23          0.467        0.713
  WS02006252           JUNCTION        3.00          1.100        0.000
  WS02006256           JUNCTION        6.16          2.050        0.000
  YS02001580           JUNCTION        0.98          0.450        0.000
  YS02001583           JUNCTION        1.00          0.500        0.000
  YS02001586           JUNCTION        1.17          0.510        0.000
  YS02001590           JUNCTION        1.27          0.750        0.000
  YS02001593           JUNCTION        1.27          0.717        0.123
  YS02001596           JUNCTION        1.42          0.954        0.116
  YS02001600           JUNCTION        1.55          1.190        0.000
  YS02001601           JUNCTION        1.79          1.440        0.000
  YS02001602           JUNCTION        1.71          1.270        0.000
  YS02001605           JUNCTION        1.68          1.180        0.000
  YS02001607           JUNCTION        1.29          0.680        0.000
  YS02001610           JUNCTION        1.32          0.680        0.000
  YS02001613           JUNCTION        1.29          0.681        0.019
  YS02001616           JUNCTION        1.23          0.610        0.000
  YS02001619           JUNCTION        1.22          0.610        0.000
  YS02001622           JUNCTION        1.22          0.620        0.000
  YS02001625           JUNCTION        1.43          0.780        0.000
  YS02001629           JUNCTION        1.16          0.470        0.000
  YS02001633           JUNCTION        1.46          1.060        0.000
  YS02001641           JUNCTION        1.42          0.970        0.130
  YS02001644           JUNCTION        1.40          0.920        0.000
  YS02001647           JUNCTION        1.16          0.795        0.105
  YS02001649           JUNCTION        1.33          1.050        0.000
  YS02001652           JUNCTION        1.08          1.058        0.072
  YS02001655           JUNCTION        0.85          1.200        0.000
  YS02001658           JUNCTION        0.47          0.707        0.593
  YS02001661           JUNCTION        0.21          0.458        0.932
  YS02001664           JUNCTION        0.05          0.136        1.174
  YS02001745           JUNCTION        0.04          0.102        1.248
  YS02001748           JUNCTION        0.37          0.564        0.626
  YS02001751           JUNCTION        0.65          0.647        0.553
  YS02001754           JUNCTION        0.98          1.150        0.000
  YS02001757           JUNCTION        1.38          1.128        0.082
  YS02001759           JUNCTION        1.31          1.158        0.052
  YS02001762           JUNCTION        1.27          1.109        0.041
  YS02001765           JUNCTION        1.21          1.046        0.054
  YS02001767           JUNCTION        1.17          0.989        0.041
  YS02001770           JUNCTION        1.14          0.920        0.000
  YS02001774           JUNCTION        1.24          1.002        0.048
  YS02001779           JUNCTION        0.95          0.680        0.000
  YS02001783           JUNCTION        0.81          0.593        1.007
  YS02001784           JUNCTION        0.78          0.420        1.070
  YS02001786           JUNCTION        0.65          0.122        1.308
  YS02001882           JUNCTION        0.74          0.830        0.000
  YS02001884           JUNCTION        0.75          0.870        0.000
  YS02001887           JUNCTION        0.80          0.898        0.052
  YS02001890           JUNCTION        0.82          0.760        0.000
  YS02001895           JUNCTION        0.73          0.581        0.169
  YS02001898           JUNCTION        0.72          0.547        0.193
  YS02001901           JUNCTION        0.78          0.697        0.173
  YS02001904           JUNCTION        0.77          0.649        0.201
  YS02001907           JUNCTION        1.07          0.950        0.000
  YS02001910           JUNCTION        0.85          1.016        0.084
  YS02001915           JUNCTION        0.74          1.000        0.000
  YS02001918           JUNCTION        0.64          0.810        0.000
  YS02001920           JUNCTION        0.66          1.140        0.000
  YS02001923           JUNCTION        0.28          0.820        0.000
  YS02001926           JUNCTION        0.31          0.900        0.000
  YS02001929           JUNCTION        0.18          0.780        0.000
  YS02006553           JUNCTION        1.10          1.004        0.186
  YS02006556           JUNCTION        0.96          0.984        0.366
  YS02006558           JUNCTION        0.95          0.996        0.404
  YS02006561           JUNCTION        0.60          0.259        0.891
  YS02163301           JUNCTION        1.44          0.948        0.082
  YS02163601           JUNCTION        1.49          1.069        0.011
  YS02164001           JUNCTION        1.42          0.978        0.122
  
  
  *********************
  Node Flooding Summary
  *********************
  
  Flooding refers to all water that overflows a node, whether it ponds or not.
  --------------------------------------------------------------------------
                                                             Total   Maximum
                                 Maximum   Time of Max       Flood    Ponded
                        Hours       Rate    Occurrence      Volume     Depth
  Node                 Flooded       LPS   days hr:min    10^6 ltr    Meters
  --------------------------------------------------------------------------
  WS02006238              0.01      5.92      0  03:22       0.000     0.000
  WS02006242              0.01     25.17      0  02:55       0.000     0.000
  WS02006248              0.01     14.68      0  01:55       0.000     0.000
  WS02006249              1.20    115.52      0  01:45       0.292     0.000
  WS02006252              0.01    245.63      0  00:00       0.000     0.000
  WS02006256              1.52    293.19      0  00:00       0.527     0.000
  YS02001580              0.01    123.18      0  01:39       0.000     0.000
  YS02001583              0.01     49.03      0  01:39       0.000     0.000
  YS02001586              0.82    983.20      0  01:52       1.151     0.000
  YS02001590              0.01      1.07      0  01:39       0.000     0.000
  YS02001600              0.01      0.56      0  01:39       0.000     0.000
  YS02001601              1.07   2241.31      0  01:51       2.877     0.000
  YS02001602              0.98     62.01      0  01:57       0.199     0.000
  YS02001605              0.01      1.95      0  01:38       0.000     0.000
  YS02001607              0.01     21.68      0  01:39       0.000     0.000
  YS02001610              0.85    953.05      0  01:55       1.550     0.000
  YS02001616              0.05     57.11      0  01:39       0.000     0.000
  YS02001619              0.22    656.69      0  01:52       0.301     0.000
  YS02001622              0.01    124.29      0  01:38       0.000     0.000
  YS02001625              0.83   1505.00      0  01:57       2.402     0.000
  YS02001629              0.28    534.13      0  01:50       0.287     0.000
  YS02001633              0.01      0.23      0  01:49       0.000     0.000
  YS02001644              0.39   2863.06      0  01:50       1.853     0.000
  YS02001649              0.01     13.55      0  01:47       0.000     0.000
  YS02001655              0.01    143.98      0  01:43       0.000     0.000
  YS02001754              0.01    209.48      0  01:43       0.000     0.000
  YS02001770              0.15    951.63      0  01:50       0.285     0.000
  YS02001779              0.34    851.46      0  01:55       0.689     0.000
  YS02001882              0.01     28.21      0  01:40       0.000     0.000
  YS02001884              0.01     22.11      0  01:40       0.000     0.000
  YS02001890              0.32    940.83      0  01:49       0.450     0.000
  YS02001907              0.57   3287.39      0  01:50       3.148     0.000
  YS02001915              0.13    512.07      0  01:51       0.148     0.000
  YS02001918              0.01    179.29      0  01:43       0.002     0.000
  YS02001920              0.01     58.84      0  01:42       0.000     0.000
  YS02001923              0.01     78.48      0  01:42       0.000     0.000
  YS02001926              0.01    276.73      0  01:42       0.002     0.000
  YS02001929              0.01     12.95      0  01:42       0.000     0.000
  
  
  **********************
  Storage Volume Summary
  **********************
  
  ------------------------------------------------------------------------------------------------
                         Average    Avg   Evap  Exfil     Maximum    Max    Time of Max    Maximum
                          Volume   Pcnt   Pcnt   Pcnt      Volume   Pcnt     Occurrence    Outflow
  Storage Unit           1000 m³   Full   Loss   Loss     1000 m³   Full    days hr:min        LPS
  ------------------------------------------------------------------------------------------------
  CC-storage               2.577   40.2    0.0    0.0       5.184   80.9       0  02:32    1783.53
  JK-storage               0.159   54.5    0.0    0.0       0.213   73.0       0  02:21    2300.00
  
  
  ***********************
  Outfall Loading Summary
  ***********************
  
  -----------------------------------------------------------
                         Flow       Avg       Max       Total
                         Freq      Flow      Flow      Volume
  Outfall Node           Pcnt       LPS       LPS    10^6 ltr
  -----------------------------------------------------------
  CC-1                  25.05    683.00    683.00       4.678
  CC-2                  23.98    683.00    683.00       4.463
  JK-1                  11.97   1000.00   1000.00       2.941
  JK-2                   2.16   1000.00   1000.00       0.693
  WSC                   99.96    290.34    554.84       6.815
  -----------------------------------------------------------
  System                32.62   3656.34   3849.49      19.590
  
  
  ********************
  Link Flow Summary
  ********************
  
  -----------------------------------------------------------------------------
                                 Maximum  Time of Max   Maximum    Max/    Max/
                                  |Flow|   Occurrence   |Veloc|    Full    Full
  Link                 Type          LPS  days hr:min     m/sec    Flow   Depth
  -----------------------------------------------------------------------------
  1                    CONDUIT    554.84     0  02:16      2.83    0.19    0.30
  WS02003060WS02003069 CONDUIT    552.89     0  02:23      1.64    0.22    0.34
  WS02003066WSF200     CONDUIT    536.41     0  02:22      2.85    0.09    0.22
  WS02003067WS02003066 CONDUIT    536.38     0  02:22      1.21    0.17    0.42
  WS02003069WS02003072 CONDUIT    553.07     0  02:15      1.37    0.27    0.39
  WS02003072WS02003073 CONDUIT    553.03     0  02:16      1.43    1.19    0.37
  WS02004401WS02004402 CONDUIT    537.18     0  02:19      0.98    0.64    0.86
  WS02004402WS02004403 CONDUIT    537.04     0  02:19      0.97    0.77    0.88
  WS02004403WS02004404 CONDUIT    536.95     0  02:19      0.92    0.39    0.93
  WS02004404WS02004405 CONDUIT    537.02     0  02:19      1.08    5.26    0.96
  WS02004405WS02004406 CONDUIT    537.04     0  02:20      0.99    1.06    0.96
  WS02004406WS02004407 CONDUIT    536.89     0  02:20      1.04    0.24    0.63
  WS02004407WS02004409 CONDUIT    536.73     0  02:20      1.54    0.19    0.48
  WS02004409WS02004410 CONDUIT    536.63     0  02:20      1.02    0.69    0.67
  WS02004410WS02004411 CONDUIT    536.58     0  02:21      0.94    0.73    0.69
  WS02004411WS02004412 CONDUIT    536.48     0  02:21      0.92    0.76    0.69
  WS02004412WS02004413 CONDUIT    536.53     0  02:21      0.82    0.36    0.78
  WS02004413WS02003067 CONDUIT    536.36     0  02:21      1.11    0.23    0.59
  WS02006109WS02006110 CONDUIT    562.11     0  02:21      1.12    1.08    1.00
  WS02006110WS02006113 CONDUIT    568.00     0  02:56      1.37    0.52    0.79
  WS02006111WS02006112 CONDUIT    543.30     0  02:28      1.81    0.26    0.67
  WS02006112WS02006115 CONDUIT    553.05     0  02:39      0.83    0.33    0.87
  WS02006113WS02006111 CONDUIT    563.41     0  02:28      2.47    0.68    0.46
  WS02006115WS02006116 CONDUIT    542.59     0  02:39      0.99    0.70    0.76
  WS02006116WS02004401 CONDUIT    537.75     0  02:00      0.98    0.74    0.84
  WS02006228WS02006109 CONDUIT    559.07     0  02:56      1.11    2.44    1.00
  WS02006229WS02006228 CONDUIT    558.06     0  02:56      1.14    1.85    1.00
  WS02006230WS02006229 CONDUIT    557.91     0  02:56      1.45   12.42    1.00
  WS02006231WS02006230 CONDUIT    579.28     0  03:10      1.58    8.79    1.00
  WS02006232WS02006231 CONDUIT    575.99     0  02:21      1.50    1.21    1.00
  WS02006234WS02006232 CONDUIT    575.13     0  02:21      1.49    1.16    1.00
  WS02006235WS02006234 CONDUIT    570.74     0  02:21      1.48    6.02    1.00
  WS02006238WS02006235 CONDUIT    430.88     0  03:22      1.51    0.96    1.00
  WS02006239WS02006238 CONDUIT    424.68     0  02:25      1.10    1.36    1.00
  WS02006240WS02006239 CONDUIT    423.23     0  02:40      1.24    1.33    1.00
  WS02006242WS02006240 CONDUIT    419.96     0  03:22      1.13    1.67    1.00
  WS02006243WS02006242 CONDUIT    420.31     0  03:22      1.40    0.90    1.00
  WS02006245WS02006243 CONDUIT    420.52     0  03:22      1.45    1.24    1.00
  WS02006247WS02006245 CONDUIT    420.25     0  02:40      1.43    3.33    1.00
  WS02006248WS02006247 CONDUIT    420.82     0  02:40      1.44    0.92    1.00
  WS02006249WS02006248 CONDUIT    425.43     0  03:22      1.38    2.33    1.00
  WS02006251WS02006249 CONDUIT    474.73     0  05:30      1.99    1.37    1.00
  WS02006252WS02006251 CONDUIT    410.32     0  01:45     24.85    1.51    1.00
  WS02006256WS02006235 CONDUIT    288.91     0  00:00      4.23    3.06    1.00
  WSF200WS02003060     CONDUIT    536.53     0  02:22      2.06    0.12    0.28
  YS02001580YS02001583 CONDUIT    133.60     0  01:39      0.66    0.52    1.00
  YS02001583YS02001586 CONDUIT    155.54     0  01:38      0.68    0.24    1.00
  YS02001586YS02001590 CONDUIT    318.01     0  02:21      1.25    0.56    1.00
  YS02001590YS02001593 CONDUIT    318.04     0  02:21      1.12    2.00    1.00
  YS02001593YS02001596 CONDUIT    318.06     0  02:07      1.71    0.50    1.00
  YS02001596YS02001600 CONDUIT    318.05     0  02:08      1.26    0.62    1.00
  YS02001600YS02001601 CONDUIT    318.20     0  02:22      1.13    0.55    1.00
  YS02001601YS02001602 CONDUIT    522.96     0  01:38      1.85    1.89    1.00
  YS02001602YS02001605 CONDUIT    522.93     0  01:38      1.85   11.07    1.00
  YS02001605YS02001607 CONDUIT    522.96     0  01:38      1.85    2.87    1.00
  YS02001607YS02001610 CONDUIT    529.10     0  01:38      0.67    0.50    1.00
  YS02001610YS02001613 CONDUIT    616.56     0  01:55      0.79    0.71    1.00
  YS02001613YS02001616 CONDUIT    616.46     0  01:55      0.78    0.53    1.00
  YS02001616YS02001619 CONDUIT    616.52     0  01:55      0.78    1.07    1.00
  YS02001619YS02001622 CONDUIT   1053.98     0  01:56      1.34    1.55    1.00
  YS02001622YS02001625 CONDUIT   1053.68     0  01:57      1.34    0.56    1.00
  YS02001625YS02001629 CONDUIT    927.98     0  01:38      1.19    0.44    1.00
  YS02001629YS02163301 CONDUIT    950.91     0  01:51      1.21    1.17    1.00
  YS02001633YS02163601 CONDUIT   1386.48     0  01:41      1.77    1.46    1.00
  YS02001641YS02001644 CONDUIT   1383.01     0  01:41      1.76    4.47    1.00
  YS02001644YS02001647 CONDUIT   1811.15     0  01:42      2.31    1.06    1.00
  YS02001647YS02001649 CONDUIT   1827.21     0  01:42      2.34    0.96    1.00
  YS02001649YS02001757 CONDUIT   2071.75     0  01:42      2.64    1.26    1.00
  YS02001652YS02001649 CONDUIT   1536.78     0  01:50      1.96    0.76    1.00
  YS02001655YS02001652 CONDUIT   1535.35     0  01:50      1.95    0.75    1.00
  YS02001658YS02001655 CONDUIT   1534.44     0  01:50      1.95    0.65    1.00
  YS02001661YS02001658 CONDUIT   1534.25     0  01:50      2.33    0.60    1.00
  YS02001664YS02001661 CONDUIT   1532.97     0  01:50      2.36    0.48    1.00
  YS02001745YS02001748 CONDUIT    975.78     0  01:49      2.21    0.38    1.00
  YS02001748YS02001751 CONDUIT    977.08     0  01:49      1.75    0.49    1.00
  YS02001751YS02001754 CONDUIT    977.44     0  01:49      1.46    0.47    1.00
  YS02001754YS02001757 CONDUIT    978.51     0  01:49      1.25    0.39    1.00
  YS02001757CaochengTiaoxuchi CONDUIT   3533.49     0  01:47      4.50    1.53    1.00
  YS02001759YS02001757 CONDUIT   1497.60     0  01:48      1.91    1.06    1.00
  YS02001762YS02001759 CONDUIT    777.10     0  01:44      0.99    0.90    1.00
  YS02001765YS02001762 CONDUIT    777.40     0  01:44      0.99    0.73    1.00
  YS02001767YS02001765 CONDUIT    779.62     0  01:44      0.99    0.98    1.00
  YS02001770YS02001767 CONDUIT    780.42     0  01:44      0.99    3.09    1.00
  YS02001774YS02001770 CONDUIT    851.40     0  01:52      1.08    0.54    1.00
  YS02001779YS02001774 CONDUIT    851.72     0  01:55      1.08    0.43    1.00
  YS02001783YS02001784 CONDUIT   1188.15     0  01:49      2.36    1.64    1.00
  YS02001784YS02001785 CONDUIT   1189.49     0  01:49      2.37    2.77    1.00
  YS02001786YS02001788 CONDUIT   1190.26     0  01:49      2.52    2.29    0.89
  YS02001788YS02001790 CONDUIT   1196.84     0  01:48      2.72    0.88    0.85
  YS02001790YS02001791 CONDUIT   1310.87     0  01:47      3.45    1.43    0.71
  YS02001791YS02001793 CONDUIT   1255.25     0  01:52      6.78    0.54    0.45
  YS02001793JiankangQianchi CONDUIT   1257.12     0  01:52      2.52    0.10    0.65
  YS02001882YS02001884 CONDUIT     71.77     0  01:40      0.18    0.08    1.00
  YS02001884YS02001887 CONDUIT     78.86     0  01:40      0.13    0.11    1.00
  YS02001887YS02001890 CONDUIT   1457.15     0  01:49      1.86    2.49    1.00
  YS02001890YS02001895 CONDUIT    517.24     0  01:58      0.66    0.24    1.00
  YS02001895YS02001898 CONDUIT    517.48     0  01:50      0.66    0.90    1.00
  YS02001898YS02001901 CONDUIT    517.43     0  01:55      0.66    0.33    1.00
  YS02001901YS02001904 CONDUIT    517.46     0  01:57      0.66    0.80    1.00
  YS02001904YS02001907 CONDUIT    517.58     0  01:58      0.66    0.18    1.00
  YS02001907YS02006553 CONDUIT    793.50     0  02:17      0.88    0.93    1.00
  YS02001910YS02001907 CONDUIT   1992.94     0  01:50      2.54    1.12    1.00
  YS02001915YS02001910 CONDUIT   1993.03     0  01:55      2.54    0.99    1.00
  YS02001918YS02001915 CONDUIT    823.35     0  01:51      1.05    0.45    1.00
  YS02001920YS02001918 CONDUIT    823.68     0  01:51      1.05    0.80    1.00
  YS02001923YS02001920 CONDUIT    820.18     0  01:51      1.04    0.37    1.00
  YS02001926YS02001923 CONDUIT    818.93     0  01:51      1.04    1.17    1.00
  YS02001929YS02001926 CONDUIT    819.02     0  01:51      1.12    0.39    1.00
  YS02006553YS02006556 CONDUIT    793.99     0  02:17      1.01    0.68    1.00
  YS02006556YS02006558 CONDUIT    795.06     0  02:17      1.01    0.63    1.00
  YS02006558YS02006561 CONDUIT   1187.99     0  01:49      4.20    2.63    1.00
  YS02006561YS02001783 CONDUIT   1189.25     0  01:49      2.37    0.62    1.00
  YS02163301YS02001633 CONDUIT    951.97     0  01:51      1.21    0.89    1.00
  YS02163601YS02164001 CONDUIT   1384.92     0  01:41      1.76    1.23    1.00
  YS02164001YS02001641 CONDUIT   1383.18     0  01:41      1.76    1.89    1.00
  CC-R1                PUMP       683.00     0  00:00              1.00
  CC-R2                PUMP       683.00     0  00:00              1.00
  CC-S1                PUMP       200.00     0  00:00              1.00
  CC-S2                PUMP       200.00     0  00:00              1.00
  JK-R1                PUMP      1000.00     0  00:00              1.00
  JK-R2                PUMP      1000.00     0  00:00              1.00
  JK-S                 PUMP       300.00     0  00:00              1.00
  
  
  ***************************
  Flow Classification Summary
  ***************************
  
  -------------------------------------------------------------------------------------
                      Adjusted    ---------- Fraction of Time in Flow Class ---------- 
                       /Actual         Up    Down  Sub   Sup   Up    Down  Norm  Inlet 
  Conduit               Length    Dry  Dry   Dry   Crit  Crit  Crit  Crit  Ltd   Ctrl  
  -------------------------------------------------------------------------------------
  1                       1.00   0.00  0.00  0.00  0.00  1.00  0.00  0.00  0.43  0.00
  WS02003060WS02003069    1.00   0.00  0.00  0.00  0.98  0.02  0.00  0.00  0.58  0.00
  WS02003066WSF200        1.00   0.13  0.00  0.00  0.00  0.87  0.00  0.00  0.73  0.00
  WS02003067WS02003066    1.00   0.10  0.02  0.00  0.88  0.00  0.00  0.00  0.00  0.00
  WS02003069WS02003072    1.00   0.00  0.00  0.00  0.99  0.01  0.00  0.00  0.66  0.00
  WS02003072WS02003073    1.00   0.00  0.00  0.00  0.00  0.00  0.00  1.00  0.00  0.00
  WS02004401WS02004402    1.00   0.02  0.00  0.00  0.98  0.00  0.00  0.00  0.00  0.00
  WS02004402WS02004403    1.00   0.02  0.00  0.00  0.97  0.00  0.00  0.00  0.00  0.00
  WS02004403WS02004404    1.00   0.00  0.03  0.00  0.97  0.00  0.00  0.00  0.00  0.00
  WS02004404WS02004405    1.00   0.00  0.00  0.00  1.00  0.00  0.00  0.00  0.00  0.00
  WS02004405WS02004406    1.00   0.00  0.00  0.00  1.00  0.00  0.00  0.00  0.00  0.00
  WS02004406WS02004407    1.00   0.00  0.05  0.00  0.95  0.00  0.00  0.00  0.00  0.00
  WS02004407WS02004409    1.00   0.05  0.00  0.00  0.94  0.01  0.00  0.00  0.94  0.00
  WS02004409WS02004410    1.00   0.05  0.00  0.00  0.95  0.00  0.00  0.00  0.03  0.00
  WS02004410WS02004411    1.00   0.05  0.00  0.00  0.95  0.00  0.00  0.00  0.01  0.00
  WS02004411WS02004412    1.00   0.05  0.00  0.00  0.95  0.00  0.00  0.00  0.00  0.00
  WS02004412WS02004413    1.00   0.05  0.00  0.00  0.94  0.00  0.00  0.00  0.01  0.00
  WS02004413WS02003067    1.00   0.06  0.04  0.00  0.00  0.00  0.90  0.00  0.00  0.00
  WS02006109WS02006110    1.00   0.00  0.01  0.00  0.98  0.00  0.01  0.00  0.00  0.00
  WS02006110WS02006113    1.00   0.01  0.01  0.00  0.98  0.00  0.00  0.00  0.00  0.00
  WS02006111WS02006112    1.00   0.02  0.00  0.00  0.98  0.00  0.00  0.00  0.98  0.00
  WS02006112WS02006115    1.00   0.02  0.00  0.00  0.97  0.00  0.00  0.00  0.00  0.00
  WS02006113WS02006111    1.00   0.02  0.00  0.00  0.00  0.98  0.00  0.00  0.17  0.00
  WS02006115WS02006116    1.00   0.02  0.00  0.00  0.97  0.00  0.00  0.01  0.00  0.00
  WS02006116WS02004401    1.00   0.02  0.00  0.00  0.98  0.00  0.00  0.00  0.00  0.00
  WS02006228WS02006109    1.00   0.00  0.00  0.00  1.00  0.00  0.00  0.00  0.00  0.00
  WS02006229WS02006228    1.00   0.00  0.00  0.00  0.99  0.00  0.00  0.01  0.00  0.00
  WS02006230WS02006229    1.00   0.00  0.00  0.00  0.99  0.00  0.00  0.01  0.01  0.00
  WS02006231WS02006230    1.00   0.00  0.00  0.00  0.36  0.00  0.64  0.00  0.00  0.00
  WS02006232WS02006231    1.00   0.00  0.00  0.00  0.99  0.00  0.01  0.00  0.00  0.00
  WS02006234WS02006232    1.00   0.00  0.00  0.00  1.00  0.00  0.00  0.00  0.11  0.00
  WS02006235WS02006234    1.00   0.00  0.00  0.00  0.85  0.00  0.15  0.00  0.00  0.00
  WS02006238WS02006235    1.00   0.00  0.00  0.00  1.00  0.00  0.00  0.00  0.00  0.00
  WS02006239WS02006238    1.00   0.00  0.00  0.00  1.00  0.00  0.00  0.00  0.23  0.00
  WS02006240WS02006239    1.00   0.00  0.00  0.00  0.69  0.00  0.00  0.30  0.02  0.00
  WS02006242WS02006240    1.00   0.00  0.00  0.00  0.99  0.00  0.01  0.00  0.00  0.00
  WS02006243WS02006242    1.00   0.00  0.00  0.00  0.99  0.00  0.00  0.01  0.40  0.00
  WS02006245WS02006243    1.00   0.00  0.00  0.00  0.75  0.00  0.00  0.25  0.01  0.00
  WS02006247WS02006245    1.00   0.00  0.00  0.00  0.98  0.00  0.00  0.02  0.00  0.00
  WS02006248WS02006247    1.00   0.00  0.00  0.00  0.99  0.00  0.00  0.01  0.21  0.00
  WS02006249WS02006248    1.00   0.00  0.00  0.00  0.59  0.00  0.41  0.00  0.00  0.00
  WS02006251WS02006249    1.00   0.00  0.00  0.00  1.00  0.00  0.00  0.00  0.42  0.00
  WS02006252WS02006251    1.00   0.00  0.44  0.00  0.15  0.00  0.40  0.00  0.00  0.00
  WS02006256WS02006235    1.00   0.00  0.00  0.00  0.99  0.01  0.00  0.00  0.00  0.00
  WSF200WS02003060        1.00   0.00  0.13  0.00  0.22  0.66  0.00  0.00  0.36  0.00
  YS02001580YS02001583    1.00   0.20  0.55  0.00  0.25  0.00  0.00  0.00  0.64  0.00
  YS02001583YS02001586    1.00   0.40  0.29  0.00  0.30  0.00  0.00  0.00  0.64  0.00
  YS02001586YS02001590    1.00   0.13  0.00  0.00  0.46  0.04  0.00  0.38  0.33  0.00
  YS02001590YS02001593    1.00   0.13  0.01  0.00  0.18  0.00  0.69  0.00  0.00  0.00
  YS02001593YS02001596    1.00   0.13  0.00  0.00  0.19  0.01  0.00  0.67  0.02  0.00
  YS02001596YS02001600    1.00   0.13  0.00  0.00  0.24  0.01  0.00  0.62  0.03  0.00
  YS02001600YS02001601    1.00   0.13  0.01  0.00  0.86  0.00  0.00  0.00  0.58  0.00
  YS02001601YS02001602    1.00   0.13  0.01  0.00  0.87  0.00  0.00  0.00  0.00  0.00
  YS02001602YS02001605    1.00   0.13  0.00  0.00  0.87  0.00  0.00  0.00  0.00  0.00
  YS02001605YS02001607    1.00   0.13  0.00  0.00  0.87  0.00  0.00  0.00  0.00  0.00
  YS02001607YS02001610    1.00   0.13  0.00  0.00  0.86  0.00  0.00  0.00  0.01  0.00
  YS02001610YS02001613    1.00   0.13  0.00  0.00  0.87  0.00  0.00  0.00  0.00  0.00
  YS02001613YS02001616    1.00   0.13  0.00  0.00  0.87  0.00  0.00  0.00  0.00  0.00
  YS02001616YS02001619    1.00   0.13  0.00  0.00  0.87  0.00  0.00  0.00  0.00  0.00
  YS02001619YS02001622    1.00   0.13  0.00  0.00  0.87  0.00  0.00  0.00  0.28  0.00
  YS02001622YS02001625    1.00   0.13  0.00  0.00  0.87  0.00  0.00  0.00  0.03  0.00
  YS02001625YS02001629    1.00   0.13  0.04  0.00  0.21  0.00  0.62  0.00  0.00  0.00
  YS02001629YS02163301    1.00   0.14  0.01  0.00  0.85  0.00  0.00  0.00  0.00  0.00
  YS02001633YS02163601    1.00   0.00  0.01  0.00  0.99  0.00  0.00  0.00  0.14  0.00
  YS02001641YS02001644    1.00   0.00  0.01  0.00  0.99  0.00  0.00  0.00  0.00  0.00
  YS02001644YS02001647    1.00   0.00  0.16  0.00  0.84  0.00  0.00  0.00  0.00  0.00
  YS02001647YS02001649    1.00   0.00  0.16  0.00  0.60  0.24  0.00  0.00  0.54  0.00
  YS02001649YS02001757    1.00   0.00  0.00  0.00  0.90  0.10  0.00  0.00  0.39  0.00
  YS02001652YS02001649    1.00   0.00  0.00  0.00  0.97  0.03  0.00  0.00  0.69  0.00
  YS02001655YS02001652    1.00   0.00  0.00  0.00  0.24  0.01  0.00  0.76  0.03  0.00
  YS02001658YS02001655    1.00   0.00  0.14  0.00  0.72  0.14  0.00  0.00  0.62  0.00
  YS02001661YS02001658    1.00   0.14  0.00  0.00  0.56  0.30  0.00  0.00  0.65  0.00
  YS02001664YS02001661    1.00   0.13  0.00  0.00  0.79  0.09  0.00  0.00  0.83  0.00
  YS02001745YS02001748    1.00   0.00  0.00  0.00  0.17  0.01  0.00  0.83  0.05  0.00
  YS02001748YS02001751    1.00   0.00  0.00  0.00  0.88  0.12  0.00  0.00  0.73  0.00
  YS02001751YS02001754    1.00   0.00  0.00  0.00  0.22  0.00  0.00  0.77  0.02  0.00
  YS02001754YS02001757    1.00   0.00  0.00  0.00  1.00  0.00  0.00  0.00  0.75  0.00
  YS02001757CaochengTiaoxuchi    1.00   0.00  0.00  0.00  0.97  0.03  0.00  0.00  0.57  0.00
  YS02001759YS02001757    1.00   0.00  0.00  0.00  0.98  0.02  0.00  0.00  0.50  0.00
  YS02001762YS02001759    1.00   0.00  0.00  0.00  1.00  0.00  0.00  0.00  0.04  0.00
  YS02001765YS02001762    1.00   0.00  0.00  0.00  1.00  0.00  0.00  0.00  0.62  0.00
  YS02001767YS02001765    1.00   0.00  0.00  0.00  1.00  0.00  0.00  0.00  0.01  0.00
  YS02001770YS02001767    1.00   0.00  0.00  0.00  1.00  0.00  0.00  0.00  0.00  0.00
  YS02001774YS02001770    1.00   0.00  0.13  0.00  0.71  0.00  0.16  0.00  0.02  0.00
  YS02001779YS02001774    1.00   0.00  0.00  0.00  1.00  0.00  0.00  0.00  0.73  0.00
  YS02001783YS02001784    1.00   0.00  0.16  0.00  0.84  0.00  0.00  0.00  0.54  0.00
  YS02001784YS02001785    1.00   0.00  0.00  0.00  1.00  0.00  0.00  0.00  0.15  0.00
  YS02001786YS02001788    1.00   0.00  0.00  0.00  0.80  0.20  0.00  0.00  0.00  0.00
  YS02001788YS02001790    1.00   0.00  0.00  0.00  0.22  0.78  0.00  0.00  0.78  0.00
  YS02001790YS02001791    1.00   0.00  0.00  0.00  0.01  0.99  0.00  0.00  0.16  0.00
  YS02001791YS02001793    1.00   0.00  0.00  0.00  0.00  1.00  0.00  0.00  0.02  0.00
  YS02001793JiankangQianchi    1.00   0.00  0.00  0.00  0.96  0.04  0.00  0.00  0.94  0.00
  YS02001882YS02001884    1.00   0.14  0.01  0.00  0.85  0.00  0.00  0.00  0.00  0.00
  YS02001884YS02001887    1.00   0.06  0.05  0.00  0.89  0.00  0.00  0.00  0.00  0.00
  YS02001887YS02001890    1.00   0.00  0.00  0.00  0.97  0.00  0.03  0.00  0.00  0.00
  YS02001890YS02001895    1.00   0.00  0.15  0.00  0.85  0.00  0.00  0.00  0.00  0.00
  YS02001895YS02001898    1.00   0.15  0.00  0.00  0.83  0.00  0.01  0.00  0.00  0.00
  YS02001898YS02001901    1.00   0.15  0.00  0.00  0.85  0.00  0.00  0.00  0.01  0.00
  YS02001901YS02001904    1.00   0.15  0.00  0.00  0.85  0.00  0.00  0.00  0.00  0.00
  YS02001904YS02001907    1.00   0.00  0.15  0.00  0.85  0.00  0.00  0.00  0.00  0.00
  YS02001907YS02006553    1.00   0.00  0.02  0.00  0.98  0.00  0.00  0.00  0.00  0.00
  YS02001910YS02001907    1.00   0.00  0.00  0.00  0.97  0.00  0.00  0.03  0.11  0.00
  YS02001915YS02001910    1.00   0.00  0.00  0.00  0.97  0.03  0.00  0.00  0.13  0.00
  YS02001918YS02001915    1.00   0.00  0.01  0.00  0.98  0.02  0.00  0.00  0.70  0.00
  YS02001920YS02001918    1.00   0.00  0.01  0.00  0.99  0.00  0.00  0.00  0.00  0.00
  YS02001923YS02001920    1.00   0.00  0.00  0.00  1.00  0.00  0.00  0.00  0.89  0.00
  YS02001926YS02001923    1.00   0.00  0.07  0.00  0.09  0.00  0.83  0.00  0.00  0.00
  YS02001929YS02001926    1.00   0.00  0.13  0.00  0.87  0.00  0.00  0.00  0.79  0.00
  YS02006553YS02006556    1.00   0.01  0.00  0.00  0.99  0.00  0.00  0.00  0.03  0.00
  YS02006556YS02006558    1.00   0.00  0.00  0.00  1.00  0.00  0.00  0.00  0.00  0.00
  YS02006558YS02006561    1.00   0.16  0.00  0.00  0.09  0.75  0.00  0.00  0.17  0.00
  YS02006561YS02001783    1.00   0.16  0.00  0.00  0.13  0.71  0.00  0.00  0.65  0.00
  YS02163301YS02001633    1.00   0.00  0.14  0.00  0.86  0.00  0.00  0.00  0.00  0.00
  YS02163601YS02164001    1.00   0.00  0.08  0.00  0.92  0.00  0.00  0.00  0.00  0.00
  YS02164001YS02001641    1.00   0.01  0.07  0.00  0.92  0.00  0.00  0.00  0.05  0.00
  
  
  *************************
  Conduit Surcharge Summary
  *************************
  
  ----------------------------------------------------------------------------
                                                           Hours        Hours 
                         --------- Hours Full --------   Above Full   Capacity
  Conduit                Both Ends  Upstream  Dnstream   Normal Flow   Limited
  ----------------------------------------------------------------------------
  WS02003072WS02003073        0.01      0.01      0.01      1.52         0.01
  WS02004404WS02004405        0.01      0.01      0.01      4.46         0.01
  WS02004405WS02004406        0.01      0.01      0.01      1.02         0.01
  WS02006109WS02006110        1.01      1.01      2.57      1.14         0.01
  WS02006110WS02006113        0.01      0.01      2.50      0.01         0.01
  WS02006111WS02006112        0.01      0.01      3.18      0.01         0.01
  WS02006112WS02006115        0.01      0.01      1.10      0.01         0.01
  WS02006228WS02006109        2.45      2.57      2.45      3.64         2.44
  WS02006229WS02006228        2.43      2.46      2.43      3.06         2.41
  WS02006230WS02006229        2.77      2.97      2.77      5.03         2.77
  WS02006231WS02006230        1.03      1.03      1.20      4.72         0.01
  WS02006232WS02006231        1.16      1.16      2.58      1.22         0.01
  WS02006234WS02006232        2.35      2.35      2.58      1.20         1.20
  WS02006235WS02006234        1.44      1.45      2.42      4.56         0.02
  WS02006238WS02006235        2.46      2.46      2.59      0.01         0.01
  WS02006239WS02006238        2.48      2.53      2.50      2.84         2.27
  WS02006240WS02006239        2.44      2.47      2.44      2.83         2.12
  WS02006242WS02006240        2.46      2.46      2.70      3.11         0.01
  WS02006243WS02006242        2.48      2.48      2.60      0.01         0.05
  WS02006245WS02006243        2.46      2.47      2.47      1.76         1.55
  WS02006247WS02006245        2.46      2.50      2.46      4.31         2.45
  WS02006248WS02006247        2.46      2.46      2.48      0.01         0.05
  WS02006249WS02006248        2.45      2.45      2.46      4.27         0.01
  WS02006251WS02006249        2.46      2.47      2.46      2.93         2.39
  WS02006252WS02006251        2.99      2.99      3.00      2.99         0.01
  WS02006256WS02006235        4.59      4.63      6.13      1.53         0.01
  YS02001580YS02001583        0.98      0.98      1.06      0.01         0.01
  YS02001583YS02001586        1.00      1.00      1.17      0.01         0.01
  YS02001586YS02001590        1.18      1.18      1.27      0.01         0.01
  YS02001590YS02001593        1.27      1.27      1.30      1.34         0.01
  YS02001593YS02001596        1.28      1.28      1.42      0.01         0.01
  YS02001596YS02001600        1.47      1.47      1.55      0.01         0.01
  YS02001600YS02001601        1.59      1.59      1.79      0.01         0.01
  YS02001601YS02001602        1.71      1.71      1.82      1.54         0.01
  YS02001602YS02001605        1.68      1.68      1.71      2.49         0.01
  YS02001605YS02001607        1.65      1.68      1.65      1.74         1.64
  YS02001607YS02001610        1.29      1.29      1.32      0.01         0.01
  YS02001610YS02001613        1.29      1.29      1.32      0.01         0.01
  YS02001613YS02001616        1.23      1.23      1.29      0.01         0.01
  YS02001616YS02001619        1.22      1.22      1.23      0.20         0.19
  YS02001619YS02001622        1.22      1.22      1.22      1.21         1.10
  YS02001622YS02001625        1.22      1.22      1.43      0.01         0.01
  YS02001625YS02001629        1.16      1.16      1.43      0.01         0.01
  YS02001629YS02163301        1.43      1.43      1.44      0.15         0.12
  YS02001633YS02163601        1.46      1.46      1.49      0.25         0.28
  YS02001641YS02001644        1.40      1.42      1.40      1.84         1.38
  YS02001644YS02001647        1.16      1.16      1.40      0.04         0.01
  YS02001647YS02001649        1.16      1.16      1.33      0.01         0.01
  YS02001649YS02001757        1.32      1.33      1.38      0.09         0.03
  YS02001652YS02001649        1.11      1.11      1.33      0.01         0.01
  YS02001655YS02001652        0.85      0.85      1.08      0.01         0.01
  YS02001658YS02001655        0.47      0.47      0.85      0.01         0.01
  YS02001661YS02001658        0.21      0.21      0.47      0.01         0.01
  YS02001664YS02001661        0.05      0.05      0.25      0.01         0.01
  YS02001745YS02001748        0.04      0.04      0.37      0.01         0.01
  YS02001748YS02001751        0.42      0.42      0.65      0.01         0.01
  YS02001751YS02001754        0.65      0.65      0.98      0.01         0.01
  YS02001754YS02001757        1.04      1.04      1.38      0.01         0.01
  YS02001757CaochengTiaoxuchi        1.32      1.38      2.28      0.55         0.45
  YS02001759YS02001757        1.31      1.31      1.38      0.11         0.12
  YS02001762YS02001759        1.27      1.27      1.31      0.01         0.02
  YS02001765YS02001762        1.21      1.21      1.27      0.01         0.01
  YS02001767YS02001765        1.17      1.17      1.21      0.01         0.02
  YS02001770YS02001767        1.17      1.17      1.17      0.74         0.70
  YS02001774YS02001770        1.14      1.14      1.24      0.01         0.01
  YS02001779YS02001774        0.95      0.95      1.24      0.01         0.01
  YS02001783YS02001784        0.78      0.81      0.78      1.00         0.78
  YS02001784YS02001785        0.65      0.78      0.65      1.34         0.65
  YS02001786YS02001788        0.01      0.65      0.01      1.13         0.01
  YS02001790YS02001791        0.01      0.01      0.01      0.77         0.01
  YS02001793JiankangQianchi        0.01      0.01      7.66      0.01         0.01
  YS02001882YS02001884        0.74      0.74      0.75      0.01         0.01
  YS02001884YS02001887        0.78      0.78      0.80      0.01         0.01
  YS02001887YS02001890        0.82      0.82      0.83      0.26         0.01
  YS02001890YS02001895        0.73      0.73      0.85      0.01         0.01
  YS02001895YS02001898        0.72      0.72      0.73      0.01         0.01
  YS02001898YS02001901        0.73      0.73      0.78      0.01         0.01
  YS02001901YS02001904        0.77      0.77      0.78      0.01         0.01
  YS02001904YS02001907        0.77      0.77      1.10      0.01         0.01
  YS02001907YS02006553        1.35      1.35      1.45      0.01         0.02
  YS02001910YS02001907        0.85      0.85      1.07      0.17         0.16
  YS02001915YS02001910        0.74      0.74      0.85      0.01         0.01
  YS02001918YS02001915        0.64      0.64      0.74      0.01         0.01
  YS02001920YS02001918        0.64      0.64      0.66      0.01         0.01
  YS02001923YS02001920        0.59      0.59      0.66      0.01         0.01
  YS02001926YS02001923        0.28      0.28      0.31      0.11         0.01
  YS02001929YS02001926        0.18      0.18      0.31      0.01         0.01
  YS02006553YS02006556        0.96      0.96      1.10      0.01         0.01
  YS02006556YS02006558        1.03      1.03      1.13      0.01         0.01
  YS02006558YS02006561        0.68      0.95      0.68      1.26         0.68
  YS02006561YS02001783        0.60      0.60      0.81      0.01         0.01
  YS02163301YS02001633        1.44      1.44      1.47      0.01         0.01
  YS02163601YS02164001        1.42      1.42      1.49      0.08         0.01
  YS02164001YS02001641        1.42      1.42      1.42      0.97         0.88
  
  
  ***************
  Pumping Summary
  ***************
  
  ---------------------------------------------------------------------------------------------------------
                                                  Min       Avg       Max     Total     Power    % Time Off
                        Percent   Number of      Flow      Flow      Flow    Volume     Usage    Pump Curve
  Pump                 Utilized   Start-Ups       LPS       LPS       LPS  10^6 ltr     Kw-hr    Low   High
  ---------------------------------------------------------------------------------------------------------
  CC-R1                   23.80           5      0.00    683.00    683.00     4.682     89.29    0.0   13.0
  CC-R2                   22.69           4      0.00    683.00    683.00     4.463     85.26    0.0   13.4
  CC-S1                   49.95           8      0.00    200.00    200.00     2.877     16.46    0.0    0.0
  CC-S2                   41.91           9      0.00    200.00    200.00     2.414     13.83    0.0    0.0
  JK-R1                   10.21          13      0.00   1000.00   1000.00     2.941     33.23    0.0    0.0
  JK-R2                    2.40           6      0.00   1000.00   1000.00     0.690      5.76    0.0    0.0
  JK-S                    19.03          16      0.00    300.00    300.00     1.644     24.47    0.0    0.0
  

  Analysis begun on:  Mon Apr 14 21:00:08 2025
  Analysis ended on:  Mon Apr 14 21:00:10 2025
  Total elapsed time: 00:00:02