
  EPA STORM WATER MANAGEMENT MODEL - VERSION 5.2 (Build 5.2.4)
  PYSWMM TOOLKIT API - VERSION v1.0 (2023-11-27)
  ------------------------------------------------------------

  WARNING 04: minimum elevation drop used for Conduit WS02004404WS02004405
  WARNING 03: negative offset ignored for Link YS02001904YS02001907
  
  ****************
  Analysis Options
  ****************
  Flow Units ............... LPS
  Process Models:
    Rainfall/Runoff ........ YES
    RDII ................... NO
    Snowmelt ............... NO
    Groundwater ............ NO
    Flow Routing ........... YES
    Ponding Allowed ........ NO
    Water Quality .......... NO
  Infiltration Method ...... HORTON
  Flow Routing Method ...... DYNWAVE
  Surcharge Method ......... EXTRAN
  Starting Date ............ 08/28/2015 08:00:00
  Ending Date .............. 08/28/2015 16:00:00
  Antecedent Dry Days ...... 8.0
  Report Time Step ......... 00:01:00
  Wet Time Step ............ 00:01:00
  Dry Time Step ............ 00:01:00
  Routing Time Step ........ 30.00 sec
  Variable Time Step ....... YES
  Maximum Trials ........... 8
  Number of Threads ........ 4
  Head Tolerance ........... 0.001500 m
  
  
  **************************        Volume         Depth
  Runoff Quantity Continuity     hectare-m            mm
  **************************     ---------       -------
  Total Precipitation ......         3.098        93.389
  Evaporation Loss .........         0.000         0.000
  Infiltration Loss ........         0.104         3.121
  Surface Runoff ...........         2.962        89.291
  Final Storage ............         0.033         0.996
  Continuity Error (%) .....        -0.021
  
  
  **************************        Volume        Volume
  Flow Routing Continuity        hectare-m      10^6 ltr
  **************************     ---------     ---------
  Dry Weather Inflow .......         0.025         0.251
  Wet Weather Inflow .......         2.961        29.615
  Groundwater Inflow .......         0.000         0.000
  RDII Inflow ..............         0.000         0.000
  External Inflow ..........         0.083         0.834
  External Outflow .........         1.852        18.524
  Flooding Loss ............         1.272        12.719
  Evaporation Loss .........         0.000         0.000
  Exfiltration Loss ........         0.000         0.000
  Initial Stored Volume ....         0.243         2.431
  Final Stored Volume ......         0.194         1.943
  Continuity Error (%) .....        -0.170
  
  
  *************************
  Highest Continuity Errors
  *************************
  Node YS02001884 (4.97%)
  Node YS02001583 (-4.45%)
  
  
  ***************************
  Time-Step Critical Elements
  ***************************
  Link WS02006252WS02006251 (43.36%)
  Link WS02006238WS02006235 (14.19%)
  Link WS02004404WS02004405 (11.03%)
  Link YS02001791YS02001793 (8.63%)
  Link WS02006235WS02006234 (7.79%)
  
  
  ********************************
  Highest Flow Instability Indexes
  ********************************
  Link WS02006113WS02006111 (56)
  Link WS02006111WS02006112 (28)
  Link WS02004404WS02004405 (22)
  Link WS02004403WS02004404 (20)
  Link WS02004405WS02004406 (18)
  
  
  *********************************
  Most Frequent Nonconverging Nodes
  *********************************
  Node CC-1 (9.53%)
  Node CC-2 (9.53%)
  Node JK-1 (9.53%)
  Node JK-2 (9.53%)
  Node WSC (9.53%)
  
  
  *************************
  Routing Time Step Summary
  *************************
  Minimum Time Step           :     0.01 sec
  Average Time Step           :     1.83 sec
  Maximum Time Step           :     7.04 sec
  % of Time in Steady State   :     0.00
  Average Iterations per Step :     2.97
  % of Steps Not Converging   :     9.53
  Time Step Frequencies       :
     30.000 - 13.228 sec      :     0.00 %
     13.228 -  5.833 sec      :     6.10 %
      5.833 -  2.572 sec      :    18.14 %
      2.572 -  1.134 sec      :    24.21 %
      1.134 -  0.500 sec      :    51.55 %
  
  
  ***************************
  Subcatchment Runoff Summary
  ***************************
  
  ------------------------------------------------------------------------------------------------------------------------------
                            Total      Total      Total      Total     Imperv       Perv      Total       Total     Peak  Runoff
                           Precip      Runon       Evap      Infil     Runoff     Runoff     Runoff      Runoff   Runoff   Coeff
  Subcatchment                 mm         mm         mm         mm         mm         mm         mm    10^6 ltr      LPS
  ------------------------------------------------------------------------------------------------------------------------------
  sub60                     93.39       0.00       0.00       1.87      80.99       9.34      90.33        1.19   786.48   0.967
  sub61                     93.39       0.00       0.00       2.71      76.39      13.17      89.56        1.64  1093.18   0.959
  sub62                     93.39       0.00       0.00       1.24      84.64       6.23      90.87        2.49  1558.87   0.973
  sub63                     93.39       0.00       0.00       5.00      65.34      22.09      87.43        1.98  1256.16   0.936
  sub64                     93.39       0.00       0.00       2.53      78.18      11.48      89.66        2.15  1287.55   0.960
  sub65                     93.39       0.00       0.00       2.19      80.00       9.96      89.96        2.48  1440.62   0.963
  sub66                     93.39       0.00       0.00       6.21      65.23      20.88      86.11        4.02  1953.11   0.922
  sub67                     93.39       0.00       0.00       1.20      84.68       6.28      90.96        1.69  1178.24   0.974
  sub68                     93.39       0.00       0.00       2.24      79.13      10.83      89.97        2.48  1594.35   0.963
  sub69                     93.39       0.00       0.00       2.02      79.27      11.99      91.27        3.38  1913.98   0.977
  sub70                     93.39       0.00       0.00       6.77      61.47      24.99      86.46        2.50  1098.44   0.926
  sub71                     93.39       0.00       0.00       1.28      84.59       6.20      90.79        2.37  1388.88   0.972
  sub72                     93.39       0.00       0.00       1.14      85.45       5.40      90.85        1.25   680.86   0.973
  
  
  ******************
  Node Depth Summary
  ******************
  
  ---------------------------------------------------------------------------------
                                 Average  Maximum  Maximum  Time of Max    Reported
                                   Depth    Depth      HGL   Occurrence   Max Depth
  Node                 Type       Meters   Meters   Meters  days hr:min      Meters
  ---------------------------------------------------------------------------------
  WS02003060           JUNCTION     0.26     0.38     5.32     0  03:03        0.38
  WS02003066           JUNCTION     0.21     0.30     5.85     0  03:03        0.30
  WS02003067           JUNCTION     0.54     0.70     6.02     0  03:03        0.70
  WS02003069           JUNCTION     0.29     0.43     5.01     0  03:04        0.43
  WS02003072           JUNCTION     0.36     0.50     4.87     0  03:04        0.50
  WS02003073           JUNCTION     0.20     0.30     4.36     0  03:04        0.30
  WS02004401           JUNCTION     0.64     0.88     6.88     0  02:59        0.87
  WS02004402           JUNCTION     0.67     0.90     6.86     0  02:59        0.90
  WS02004403           JUNCTION     0.69     0.92     6.85     0  02:20        0.92
  WS02004404           JUNCTION     0.77     1.02     6.87     0  02:21        1.00
  WS02004405           JUNCTION     0.75     0.97     6.82     0  03:01        0.96
  WS02004406           JUNCTION     0.76     0.96     6.79     0  03:01        0.96
  WS02004407           JUNCTION     0.20     0.30     6.61     0  03:01        0.30
  WS02004409           JUNCTION     0.44     0.67     6.44     0  03:01        0.67
  WS02004410           JUNCTION     0.46     0.68     6.40     0  03:02        0.68
  WS02004411           JUNCTION     0.48     0.69     6.37     0  03:02        0.69
  WS02004412           JUNCTION     0.50     0.70     6.34     0  03:02        0.70
  WS02004413           JUNCTION     0.66     0.86     6.33     0  03:02        0.86
  WS02006109           JUNCTION     0.69     1.27     7.89     0  02:11        1.12
  WS02006110           JUNCTION     0.69     1.45     8.03     0  02:37        1.11
  WS02006111           JUNCTION     0.19     0.29     6.99     0  02:50        0.29
  WS02006112           JUNCTION     0.79     1.09     6.97     0  02:49        1.07
  WS02006113           JUNCTION     0.30     0.46     7.35     0  02:37        0.46
  WS02006115           JUNCTION     0.52     0.77     6.91     0  03:00        0.77
  WS02006116           JUNCTION     0.61     0.85     6.89     0  03:00        0.85
  WS02006228           JUNCTION     0.68     1.64     8.29     0  02:37        1.64
  WS02006229           JUNCTION     0.66     1.88     8.57     0  02:37        1.88
  WS02006230           JUNCTION     0.66     2.31     9.05     0  02:37        2.31
  WS02006231           JUNCTION     0.46     1.89     9.01     0  02:37        1.89
  WS02006232           JUNCTION     0.60     1.85     8.89     0  02:37        1.85
  WS02006234           JUNCTION     0.52     1.83     8.98     0  01:55        1.59
  WS02006235           JUNCTION     0.56     1.67     8.84     0  02:25        1.52
  WS02006238           JUNCTION     0.59     1.74     8.88     0  02:25        1.53
  WS02006239           JUNCTION     0.56     1.71     8.92     0  02:25        1.42
  WS02006240           JUNCTION     0.53     1.62     8.92     0  02:25        1.32
  WS02006242           JUNCTION     0.60     1.55     8.82     0  02:25        1.44
  WS02006243           JUNCTION     0.51     1.41     8.83     0  02:25        1.38
  WS02006245           JUNCTION     0.51     1.34     8.82     0  03:22        1.34
  WS02006247           JUNCTION     0.53     1.29     8.79     0  03:22        1.29
  WS02006248           JUNCTION     0.49     1.10     8.69     0  01:50        1.10
  WS02006249           JUNCTION     0.52     1.09     8.69     0  01:50        1.09
  WS02006251           JUNCTION     0.52     1.56     9.23     0  02:42        1.15
  WS02006252           JUNCTION     0.38     1.50     9.74     0  00:00        0.70
  WS02006256           JUNCTION     0.98     2.35     9.28     0  00:00        2.35
  WSF200               JUNCTION     0.19     0.29     5.52     0  03:03        0.29
  YS02001580           JUNCTION     0.11     1.05     9.59     0  01:48        0.77
  YS02001583           JUNCTION     0.14     1.10     9.60     0  01:48        0.83
  YS02001586           JUNCTION     0.21     1.13     9.30     0  01:48        1.13
  YS02001590           JUNCTION     0.30     1.40     9.26     0  01:48        1.37
  YS02001593           JUNCTION     0.24     1.46     9.32     0  01:47        1.46
  YS02001596           JUNCTION     0.33     1.80     9.22     0  01:47        1.80
  YS02001600           JUNCTION     0.38     1.87     9.00     0  01:47        1.87
  YS02001601           JUNCTION     0.57     2.06     8.90     0  01:47        2.06
  YS02001602           JUNCTION     0.48     1.87     8.77     0  01:47        1.87
  YS02001605           JUNCTION     0.45     1.78     8.68     0  01:57        1.78
  YS02001607           JUNCTION     0.45     1.65     8.49     0  02:11        1.64
  YS02001610           JUNCTION     0.49     1.68     8.48     0  01:51        1.68
  YS02001613           JUNCTION     0.45     1.67     8.51     0  02:06        1.66
  YS02001616           JUNCTION     0.38     1.61     8.52     0  01:59        1.61
  YS02001619           JUNCTION     0.36     1.61     8.54     0  01:59        1.61
  YS02001622           JUNCTION     0.35     1.58     8.49     0  02:05        1.58
  YS02001625           JUNCTION     0.62     1.78     8.38     0  01:51        1.78
  YS02001629           JUNCTION     0.46     1.85     8.40     0  01:53        1.85
  YS02001633           JUNCTION     0.55     2.08     8.53     0  02:00        2.08
  YS02001641           JUNCTION     0.54     1.97     8.41     0  01:53        1.94
  YS02001644           JUNCTION     0.53     1.92     8.35     0  01:53        1.92
  YS02001647           JUNCTION     0.33     1.78     8.39     0  02:00        1.78
  YS02001649           JUNCTION     0.37     2.04     8.43     0  02:00        2.04
  YS02001652           JUNCTION     0.27     2.16     8.75     0  01:53        1.91
  YS02001655           JUNCTION     0.22     2.20     9.05     0  01:53        1.71
  YS02001658           JUNCTION     0.16     2.00     9.14     0  01:53        1.51
  YS02001661           JUNCTION     0.17     1.34     8.74     0  01:57        1.32
  YS02001664           JUNCTION     0.06     0.85     8.77     0  02:01        0.84
  YS02001745           JUNCTION     0.08     0.97     8.49     0  02:01        0.97
  YS02001748           JUNCTION     0.15     1.38     8.46     0  02:01        1.37
  YS02001751           JUNCTION     0.19     1.77     8.65     0  01:53        1.55
  YS02001754           JUNCTION     0.25     1.79     8.39     0  02:00        1.78
  YS02001757           JUNCTION     0.40     2.12     8.38     0  02:00        2.12
  YS02001759           JUNCTION     0.35     2.15     8.51     0  02:00        2.15
  YS02001762           JUNCTION     0.34     2.10     8.50     0  02:00        2.10
  YS02001765           JUNCTION     0.32     2.04     8.49     0  02:00        2.04
  YS02001767           JUNCTION     0.31     1.98     8.47     0  02:00        1.98
  YS02001770           JUNCTION     0.32     1.95     8.44     0  01:58        1.95
  YS02001774           JUNCTION     0.39     2.00     8.42     0  01:59        2.00
  YS02001779           JUNCTION     0.23     1.68     8.37     0  01:52        1.68
  YS02001783           JUNCTION     0.24     1.26     7.40     0  01:52        1.25
  YS02001784           JUNCTION     0.25     1.14     7.21     0  01:52        1.12
  YS02001786           JUNCTION     0.21     0.89     6.92     0  01:52        0.88
  YS02001788           JUNCTION     0.15     0.63     6.61     0  02:00        0.63
  YS02001790           JUNCTION     0.18     0.73     6.38     0  02:01        0.72
  YS02001791           JUNCTION     0.11     0.45     5.92     0  02:01        0.44
  YS02001793           JUNCTION     0.06     0.29     5.13     0  01:55        0.29
  YS02001882           JUNCTION     0.31     1.83     8.55     0  01:50        1.72
  YS02001884           JUNCTION     0.40     1.91     8.53     0  01:50        1.81
  YS02001887           JUNCTION     0.48     1.91     8.45     0  02:00        1.91
  YS02001890           JUNCTION     0.51     1.81     8.32     0  01:50        1.81
  YS02001895           JUNCTION     0.28     1.57     8.31     0  02:00        1.57
  YS02001898           JUNCTION     0.29     1.57     8.30     0  01:52        1.56
  YS02001901           JUNCTION     0.40     1.68     8.29     0  01:52        1.67
  YS02001904           JUNCTION     0.38     1.64     8.27     0  01:52        1.64
  YS02001907           JUNCTION     0.71     1.96     8.25     0  01:52        1.96
  YS02001910           JUNCTION     0.51     2.01     8.52     0  02:01        2.01
  YS02001915           JUNCTION     0.32     2.00     8.72     0  02:00        2.00
  YS02001918           JUNCTION     0.18     1.81     8.88     0  01:53        1.70
  YS02001920           JUNCTION     0.26     2.09     9.10     0  01:53        1.80
  YS02001923           JUNCTION     0.14     2.00     9.26     0  01:53        1.57
  YS02001926           JUNCTION     0.17     1.90     9.35     0  01:53        1.41
  YS02001929           JUNCTION     0.10     1.78     9.47     0  01:53        1.19
  YS02006553           JUNCTION     0.71     1.99     8.27     0  02:01        1.99
  YS02006556           JUNCTION     0.68     2.01     8.32     0  02:00        2.01
  YS02006558           JUNCTION     0.73     2.09     8.36     0  02:00        2.09
  YS02006561           JUNCTION     0.15     0.93     7.59     0  01:52        0.92
  YS02163301           JUNCTION     0.49     1.95     8.47     0  02:00        1.95
  YS02163601           JUNCTION     0.59     2.06     8.46     0  01:53        2.06
  YS02164001           JUNCTION     0.52     1.98     8.44     0  01:53        1.96
  CC-1                 OUTFALL      0.00     0.00     0.00     0  00:00        0.00
  CC-2                 OUTFALL      0.00     0.00     0.00     0  00:00        0.00
  JK-1                 OUTFALL      0.00     0.00     0.00     0  00:00        0.00
  JK-2                 OUTFALL      0.00     0.00     0.00     0  00:00        0.00
  WSC                  OUTFALL      0.20     0.30     0.97     0  03:05        0.30
  CC-storage           STORAGE      0.93     1.87     7.37     0  02:36        1.87
  JK-storage           STORAGE      3.09     4.21     5.01     0  01:55        4.17
  
  
  *******************
  Node Inflow Summary
  *******************
  
  -------------------------------------------------------------------------------------------------
                                  Maximum  Maximum                  Lateral       Total        Flow
                                  Lateral    Total  Time of Max      Inflow      Inflow     Balance
                                   Inflow   Inflow   Occurrence      Volume      Volume       Error
  Node                 Type           LPS      LPS  days hr:min    10^6 ltr    10^6 ltr     Percent
  -------------------------------------------------------------------------------------------------
  WS02003060           JUNCTION     16.53   553.59     0  03:03       0.476        6.57       0.034
  WS02003066           JUNCTION      0.00   536.75     0  03:03           0        6.09       0.022
  WS02003067           JUNCTION      0.00   536.71     0  03:02           0         6.1       0.068
  WS02003069           JUNCTION      0.32   553.41     0  03:03     0.00922        6.57       0.058
  WS02003072           JUNCTION      0.00   552.90     0  03:04           0        6.57       0.104
  WS02003073           JUNCTION      1.82   554.62     0  03:04      0.0524        6.61       0.086
  WS02004401           JUNCTION      0.00   542.29     0  02:38           0        6.19       0.161
  WS02004402           JUNCTION      0.00   541.15     0  02:38           0        6.18       0.164
  WS02004403           JUNCTION      0.00   543.30     0  02:38           0        6.17       0.159
  WS02004404           JUNCTION      0.16   555.24     0  02:38     0.00467        6.17       0.159
  WS02004405           JUNCTION      0.04   602.74     0  02:21      0.0011        6.16       0.127
  WS02004406           JUNCTION      0.00   542.22     0  02:58           0        6.15       0.332
  WS02004407           JUNCTION      0.00   538.43     0  03:01           0        6.13       0.016
  WS02004409           JUNCTION      0.00   537.86     0  03:01           0        6.13       0.041
  WS02004410           JUNCTION      0.00   537.68     0  03:01           0        6.12       0.068
  WS02004411           JUNCTION      0.00   537.31     0  03:02           0        6.12       0.088
  WS02004412           JUNCTION      0.00   537.18     0  03:02           0        6.12       0.119
  WS02004413           JUNCTION      0.00   537.21     0  03:02           0        6.11       0.212
  WS02006109           JUNCTION      1.23   606.51     0  02:37      0.0354        6.24       0.148
  WS02006110           JUNCTION      0.00   614.09     0  02:37           0        6.23       0.101
  WS02006111           JUNCTION      0.00   564.90     0  02:37           0        6.22       0.008
  WS02006112           JUNCTION      0.00   543.83     0  02:28           0        6.22       0.277
  WS02006113           JUNCTION      0.00   590.44     0  02:37           0        6.22       0.029
  WS02006115           JUNCTION      0.00   553.27     0  02:11           0         6.2       0.102
  WS02006116           JUNCTION      0.00   541.25     0  02:38           0         6.2       0.090
  WS02006228           JUNCTION      0.00   586.67     0  02:37           0        6.21       0.054
  WS02006229           JUNCTION      0.00   577.78     0  02:37           0        6.21       0.076
  WS02006230           JUNCTION     10.28   590.93     0  01:55       0.296        6.21       0.045
  WS02006231           JUNCTION      0.00   579.86     0  03:15           0        5.92       0.003
  WS02006232           JUNCTION      0.00   579.04     0  03:15           0        5.92       0.130
  WS02006234           JUNCTION      0.00   574.93     0  02:36           0        5.92      -0.144
  WS02006235           JUNCTION      0.00   568.10     0  02:36           0           6       0.121
  WS02006238           JUNCTION      0.00   425.49     0  03:23           0        5.06      -0.092
  WS02006239           JUNCTION      0.00   424.21     0  03:23           0        5.02      -0.109
  WS02006240           JUNCTION      0.00   420.72     0  03:23           0        4.98      -0.034
  WS02006242           JUNCTION      0.00   420.63     0  03:23           0        4.95      -0.042
  WS02006243           JUNCTION      0.00   419.97     0  03:23           0        4.92      -0.093
  WS02006245           JUNCTION      0.00   432.62     0  01:51           0        4.93       0.214
  WS02006247           JUNCTION      0.00   440.41     0  01:51           0        4.92      -0.020
  WS02006248           JUNCTION      0.00   441.53     0  01:51           0        4.92       0.025
  WS02006249           JUNCTION      0.00   463.67     0  01:20           0        5.16       0.168
  WS02006251           JUNCTION      0.08   406.74     0  01:52     0.00222        5.16       0.005
  WS02006252           JUNCTION      0.00   400.00     0  00:00           0        5.15      -0.053
  WS02006256           JUNCTION      0.00   300.00     0  00:00           0        1.42      -0.817
  WSF200               JUNCTION      0.00   536.83     0  03:03           0        6.09       0.007
  YS02001580           JUNCTION      0.00    78.15     0  01:48           0     0.00415       0.501
  YS02001583           JUNCTION      0.00   135.61     0  01:47           0      0.0153      -4.258
  YS02001586           JUNCTION   1098.44  1098.44     0  02:04         2.5        2.51       0.045
  YS02001590           JUNCTION      0.00   318.34     0  02:30           0        1.64      -0.023
  YS02001593           JUNCTION      0.00   318.38     0  02:30           0        1.64       0.001
  YS02001596           JUNCTION      0.00   317.91     0  02:26           0        1.64      -0.018
  YS02001600           JUNCTION      0.00   318.17     0  02:30           0        1.64       0.009
  YS02001601           JUNCTION   1913.98  2231.62     0  02:02        3.38        5.01       0.019
  YS02001602           JUNCTION      0.00   505.65     0  01:47           0        2.63       0.019
  YS02001605           JUNCTION      0.00   507.43     0  01:47           0        2.45       0.021
  YS02001607           JUNCTION      0.00   508.40     0  01:47           0        2.45       0.075
  YS02001610           JUNCTION      0.00   954.14     0  02:06           0        3.06       0.072
  YS02001613           JUNCTION      0.00   617.64     0  02:06           0        2.35       0.065
  YS02001616           JUNCTION      0.00   617.95     0  02:08           0        2.35       0.015
  YS02001619           JUNCTION   1953.11  1953.11     0  02:03        4.01        5.75      -0.002
  YS02001622           JUNCTION      0.00  1053.92     0  02:06           0        5.04      -0.002
  YS02001625           JUNCTION      0.00  1505.28     0  02:07           0         5.5       0.181
  YS02001629           JUNCTION      0.00   922.10     0  01:51           0         3.9       0.010
  YS02001633           JUNCTION   1440.82  1440.82     0  02:02        2.48         5.8       0.059
  YS02001641           JUNCTION      0.00  1343.32     0  01:51           0        5.22       0.050
  YS02001644           JUNCTION   1287.59  2253.84     0  02:02        2.15        7.42       0.044
  YS02001647           JUNCTION      0.00  1724.74     0  01:51           0        6.09       0.008
  YS02001649           JUNCTION      0.00  1947.55     0  01:51           0        8.03      -0.001
  YS02001652           JUNCTION      0.00  1268.06     0  02:01           0        1.99      -0.059
  YS02001655           JUNCTION      0.15  1268.17     0  02:01     0.00443        1.99       0.000
  YS02001658           JUNCTION      0.00  1268.23     0  02:01           0        1.98      -0.053
  YS02001661           JUNCTION      0.00  1267.36     0  02:01           0        1.98      -0.006
  YS02001664           JUNCTION   1256.16  1256.16     0  02:02        1.98        1.98      -0.004
  YS02001745           JUNCTION    786.49   786.49     0  02:02        1.19        1.19       0.124
  YS02001748           JUNCTION      0.04   801.89     0  02:01      0.0013        1.19      -0.208
  YS02001751           JUNCTION      0.01   802.47     0  02:01    0.000317        1.19       0.070
  YS02001754           JUNCTION      0.26   802.90     0  02:01     0.00749        1.21      -0.102
  YS02001757           JUNCTION      0.00  3241.99     0  02:00           0        12.7       0.015
  YS02001759           JUNCTION   1093.22  1401.82     0  02:01        1.64         3.5      -0.012
  YS02001762           JUNCTION      0.00   714.44     0  01:56           0        1.85      -0.007
  YS02001765           JUNCTION      0.00   714.76     0  01:56           0        1.85       0.001
  YS02001767           JUNCTION      0.54   715.77     0  01:55      0.0154        1.85      -0.006
  YS02001770           JUNCTION   1559.02  1559.02     0  02:02        2.49        2.54      -0.004
  YS02001774           JUNCTION      0.00   851.11     0  02:05           0       0.638       0.137
  YS02001779           JUNCTION      0.01   851.11     0  02:05    0.000144       0.591      -0.125
  YS02001783           JUNCTION      0.00  1172.66     0  02:00           0        4.97       0.004
  YS02001784           JUNCTION      1.06  1173.11     0  02:00      0.0305           5       0.011
  YS02001786           JUNCTION      0.06  1173.59     0  02:00     0.00162           5       0.015
  YS02001788           JUNCTION      0.07  1174.54     0  02:00     0.00204           5       0.006
  YS02001790           JUNCTION      0.15  1187.92     0  02:00     0.00446           5       0.032
  YS02001791           JUNCTION      0.00  1303.85     0  02:01           0           5      -0.036
  YS02001793           JUNCTION      0.00  1265.49     0  01:59           0           5       0.004
  YS02001882           JUNCTION      0.00    44.29     0  01:50           0       0.013       4.637
  YS02001884           JUNCTION      0.00    61.20     0  01:49           0       0.049       5.229
  YS02001887           JUNCTION   1178.69  1180.56     0  02:01         1.7        1.74       0.248
  YS02001890           JUNCTION      0.00  1181.38     0  02:01           0         1.7       0.298
  YS02001895           JUNCTION      0.00   517.58     0  02:02           0         1.4       0.130
  YS02001898           JUNCTION      0.00   517.61     0  02:01           0         1.4       0.003
  YS02001901           JUNCTION      0.00   517.72     0  02:02           0         1.4       0.235
  YS02001904           JUNCTION      0.00   517.78     0  02:02           0         1.4       0.200
  YS02001907           JUNCTION      0.00  2939.11     0  02:02           0        5.22       0.350
  YS02001910           JUNCTION      0.00  1992.70     0  02:02           0         3.7       0.194
  YS02001915           JUNCTION   1388.90  2069.54     0  02:02        2.37        3.74       0.039
  YS02001918           JUNCTION      0.00   683.96     0  02:02           0        1.38       0.002
  YS02001920           JUNCTION      2.87   683.78     0  02:02      0.0827        1.37       0.060
  YS02001923           JUNCTION      0.04   681.01     0  02:03     0.00109        1.27      -0.029
  YS02001926           JUNCTION      0.05   680.99     0  02:03      0.0015        1.26       0.016
  YS02001929           JUNCTION    680.86   680.86     0  02:03        1.25        1.25      -0.087
  YS02006553           JUNCTION      0.00   796.22     0  02:24           0        2.76       0.438
  YS02006556           JUNCTION      0.00   796.24     0  02:24           0        2.77       0.286
  YS02006558           JUNCTION   1595.23  1595.23     0  02:02         2.5        5.12       0.070
  YS02006561           JUNCTION      0.00  1171.84     0  02:00           0        4.97      -0.004
  YS02163301           JUNCTION      0.00   921.41     0  01:51           0         3.9       0.038
  YS02163601           JUNCTION      0.11  1344.60     0  01:51     0.00317        5.21       0.093
  YS02164001           JUNCTION      0.00  1343.89     0  01:51           0        5.21       0.040
  CC-1                 OUTFALL       0.00   683.00     0  00:00           0        4.27       0.000
  CC-2                 OUTFALL       0.00   683.00     0  00:00           0        4.06       0.000
  JK-1                 OUTFALL       0.00  1000.00     0  00:00           0         2.2       0.000
  JK-2                 OUTFALL       0.00  1000.00     0  00:00           0        1.38       0.000
  WSC                  OUTFALL       0.00   554.54     0  03:05           0        6.61       0.000
  CC-storage           STORAGE       0.00  3243.41     0  02:00           0        14.9      -0.190
  JK-storage           STORAGE       0.00  1308.07     0  02:00           0        5.16      -0.005
  
  
  **********************
  Node Surcharge Summary
  **********************
  
  Surcharging occurs when water rises above the top of the highest conduit.
  ---------------------------------------------------------------------
                                               Max. Height   Min. Depth
                                   Hours       Above Crown    Below Rim
  Node                 Type      Surcharged         Meters       Meters
  ---------------------------------------------------------------------
  WS02004404           JUNCTION        0.01          0.019        2.761
  WS02006109           JUNCTION        2.43          0.451        1.369
  WS02006110           JUNCTION        0.74          0.539        1.311
  WS02006112           JUNCTION        1.02          0.089        1.591
  WS02006228           JUNCTION        2.40          0.806        1.394
  WS02006229           JUNCTION        2.45          1.077        1.373
  WS02006230           JUNCTION        0.77          1.228        0.342
  WS02006231           JUNCTION        0.91          1.179        0.351
  WS02006232           JUNCTION        2.61          1.147        0.333
  WS02006234           JUNCTION        1.26          1.105        0.135
  WS02006235           JUNCTION        2.41          0.965        0.325
  WS02006238           JUNCTION        2.50          1.018        0.412
  WS02006239           JUNCTION        2.43          0.974        0.316
  WS02006240           JUNCTION        2.46          0.914        0.476
  WS02006242           JUNCTION        2.64          0.820        0.000
  WS02006243           JUNCTION        2.48          0.704        0.066
  WS02006245           JUNCTION        2.48          0.627        0.223
  WS02006247           JUNCTION        2.51          0.576        0.184
  WS02006248           JUNCTION        2.45          0.380        0.000
  WS02006249           JUNCTION        2.48          0.390        0.000
  WS02006251           JUNCTION        0.98          0.525        0.655
  WS02006252           JUNCTION        2.93          1.100        0.000
  WS02006256           JUNCTION        6.24          2.050        0.000
  YS02001580           JUNCTION        0.89          0.450        0.000
  YS02001583           JUNCTION        0.90          0.460        0.040
  YS02001586           JUNCTION        1.06          0.510        0.000
  YS02001590           JUNCTION        1.15          0.750        0.000
  YS02001593           JUNCTION        1.16          0.840        0.000
  YS02001596           JUNCTION        1.29          1.070        0.000
  YS02001600           JUNCTION        1.43          1.190        0.000
  YS02001601           JUNCTION        1.70          1.440        0.000
  YS02001602           JUNCTION        1.62          1.270        0.000
  YS02001605           JUNCTION        1.58          1.180        0.000
  YS02001607           JUNCTION        1.17          0.646        0.034
  YS02001610           JUNCTION        1.20          0.680        0.000
  YS02001613           JUNCTION        1.16          0.668        0.032
  YS02001616           JUNCTION        1.11          0.610        0.000
  YS02001619           JUNCTION        1.10          0.610        0.000
  YS02001622           JUNCTION        1.10          0.583        0.037
  YS02001625           JUNCTION        1.30          0.780        0.000
  YS02001629           JUNCTION        1.04          0.470        0.000
  YS02001633           JUNCTION        1.33          1.060        0.000
  YS02001641           JUNCTION        1.28          0.973        0.127
  YS02001644           JUNCTION        1.26          0.920        0.000
  YS02001647           JUNCTION        1.02          0.782        0.118
  YS02001649           JUNCTION        1.18          1.038        0.012
  YS02001652           JUNCTION        0.96          1.127        0.003
  YS02001655           JUNCTION        0.75          1.200        0.000
  YS02001658           JUNCTION        0.43          0.995        0.305
  YS02001661           JUNCTION        0.16          0.270        1.120
  YS02001748           JUNCTION        0.34          0.303        0.887
  YS02001751           JUNCTION        0.59          0.773        0.427
  YS02001754           JUNCTION        0.87          0.737        0.413
  YS02001757           JUNCTION        1.24          1.118        0.092
  YS02001759           JUNCTION        1.16          1.149        0.061
  YS02001762           JUNCTION        1.13          1.105        0.045
  YS02001765           JUNCTION        1.08          1.039        0.061
  YS02001767           JUNCTION        1.04          0.978        0.052
  YS02001770           JUNCTION        1.01          0.920        0.000
  YS02001774           JUNCTION        1.11          1.000        0.050
  YS02001779           JUNCTION        0.85          0.680        0.000
  YS02001783           JUNCTION        0.75          0.463        1.137
  YS02001784           JUNCTION        0.72          0.345        1.145
  YS02001786           JUNCTION        0.59          0.092        1.338
  YS02001882           JUNCTION        0.68          0.830        0.000
  YS02001884           JUNCTION        0.70          0.853        0.017
  YS02001887           JUNCTION        0.74          0.864        0.086
  YS02001890           JUNCTION        0.76          0.760        0.000
  YS02001895           JUNCTION        0.67          0.568        0.182
  YS02001898           JUNCTION        0.66          0.540        0.200
  YS02001901           JUNCTION        0.72          0.681        0.189
  YS02001904           JUNCTION        0.71          0.640        0.210
  YS02001907           JUNCTION        1.02          0.950        0.000
  YS02001910           JUNCTION        0.79          1.012        0.088
  YS02001915           JUNCTION        0.68          1.000        0.000
  YS02001918           JUNCTION        0.58          0.810        0.000
  YS02001920           JUNCTION        0.60          1.089        0.051
  YS02001923           JUNCTION        0.24          0.790        0.030
  YS02001926           JUNCTION        0.28          0.900        0.000
  YS02001929           JUNCTION        0.12          0.780        0.000
  YS02006553           JUNCTION        1.04          0.987        0.203
  YS02006556           JUNCTION        0.90          0.971        0.379
  YS02006558           JUNCTION        0.88          0.991        0.409
  YS02006561           JUNCTION        0.54          0.131        1.019
  YS02163301           JUNCTION        1.31          0.950        0.080
  YS02163601           JUNCTION        1.36          1.062        0.018
  YS02164001           JUNCTION        1.28          0.984        0.116
  
  
  *********************
  Node Flooding Summary
  *********************
  
  Flooding refers to all water that overflows a node, whether it ponds or not.
  --------------------------------------------------------------------------
                                                             Total   Maximum
                                 Maximum   Time of Max       Flood    Ponded
                        Hours       Rate    Occurrence      Volume     Depth
  Node                 Flooded       LPS   days hr:min    10^6 ltr    Meters
  --------------------------------------------------------------------------
  WS02006242              0.01      6.18      0  02:25       0.000     0.000
  WS02006248              0.01     13.09      0  01:55       0.000     0.000
  WS02006249              0.95    100.01      0  01:52       0.228     0.000
  WS02006252              0.01    245.63      0  00:00       0.000     0.000
  WS02006256              1.32    293.19      0  00:00       0.439     0.000
  YS02001580              0.01     49.92      0  01:48       0.000     0.000
  YS02001586              0.73    780.88      0  02:04       0.862     0.000
  YS02001590              0.01      4.15      0  01:48       0.000     0.000
  YS02001593              0.01      0.75      0  01:47       0.000     0.000
  YS02001596              0.01      0.60      0  01:47       0.000     0.000
  YS02001600              0.01      1.92      0  01:48       0.000     0.000
  YS02001601              0.98   1833.74      0  02:02       2.383     0.000
  YS02001602              0.85     62.11      0  02:36       0.176     0.000
  YS02001605              0.01      0.35      0  01:57       0.000     0.000
  YS02001610              0.76    953.49      0  02:06       1.326     0.000
  YS02001616              0.03      2.09      0  02:06       0.000     0.000
  YS02001619              0.15    289.49      0  02:03       0.092     0.000
  YS02001625              0.73   1505.08      0  02:08       2.168     0.000
  YS02001629              0.26    310.77      0  02:02       0.136     0.000
  YS02001633              0.01      0.30      0  02:00       0.000     0.000
  YS02001644              0.36   2253.72      0  02:02       1.369     0.000
  YS02001655              0.01     26.97      0  01:53       0.000     0.000
  YS02001770              0.10    415.04      0  02:02       0.091     0.000
  YS02001779              0.32    851.11      0  02:05       0.572     0.000
  YS02001882              0.01     12.92      0  01:50       0.000     0.000
  YS02001890              0.30    664.32      0  02:01       0.294     0.000
  YS02001907              0.52   2938.13      0  02:02       2.571     0.000
  YS02001915              0.06     77.88      0  02:02       0.010     0.000
  YS02001918              0.01    100.46      0  01:53       0.001     0.000
  YS02001926              0.01     99.74      0  01:53       0.000     0.000
  YS02001929              0.01    206.57      0  01:53       0.001     0.000
  
  
  **********************
  Storage Volume Summary
  **********************
  
  ------------------------------------------------------------------------------------------------
                         Average    Avg   Evap  Exfil     Maximum    Max    Time of Max    Maximum
                          Volume   Pcnt   Pcnt   Pcnt      Volume   Pcnt     Occurrence    Outflow
  Storage Unit           1000 m³   Full   Loss   Loss     1000 m³   Full    days hr:min        LPS
  ------------------------------------------------------------------------------------------------
  CC-storage               2.582   40.3    0.0    0.0       5.202   81.1       0  02:36    1783.53
  JK-storage               0.155   53.3    0.0    0.0       0.212   72.7       0  01:55    2300.00
  
  
  ***********************
  Outfall Loading Summary
  ***********************
  
  -----------------------------------------------------------
                         Flow       Avg       Max       Total
                         Freq      Flow      Flow      Volume
  Outfall Node           Pcnt       LPS       LPS    10^6 ltr
  -----------------------------------------------------------
  CC-1                  22.15    683.00    683.00       4.268
  CC-2                  20.91    683.00    683.00       4.062
  JK-1                   8.18   1000.00   1000.00       2.204
  JK-2                   5.11   1000.00   1000.00       1.382
  WSC                   99.96    295.13    554.54       6.608
  -----------------------------------------------------------
  System                31.26   3661.13   3915.63      18.524
  
  
  ********************
  Link Flow Summary
  ********************
  
  -----------------------------------------------------------------------------
                                 Maximum  Time of Max   Maximum    Max/    Max/
                                  |Flow|   Occurrence   |Veloc|    Full    Full
  Link                 Type          LPS  days hr:min     m/sec    Flow   Depth
  -----------------------------------------------------------------------------
  1                    CONDUIT    554.54     0  03:05      2.83    0.19    0.30
  WS02003060WS02003069 CONDUIT    553.09     0  03:03      1.64    0.22    0.34
  WS02003066WSF200     CONDUIT    536.83     0  03:03      2.85    0.09    0.22
  WS02003067WS02003066 CONDUIT    536.75     0  03:03      1.21    0.17    0.42
  WS02003069WS02003072 CONDUIT    552.90     0  03:04      1.37    0.27    0.39
  WS02003072WS02003073 CONDUIT    552.80     0  03:04      1.43    1.19    0.37
  WS02004401WS02004402 CONDUIT    541.15     0  02:38      0.98    0.65    0.89
  WS02004402WS02004403 CONDUIT    543.30     0  02:38      0.97    0.78    0.91
  WS02004403WS02004404 CONDUIT    555.07     0  02:38      0.92    0.40    0.96
  WS02004404WS02004405 CONDUIT    602.70     0  02:21      1.08    5.90    0.98
  WS02004405WS02004406 CONDUIT    542.22     0  02:58      0.99    1.07    0.96
  WS02004406WS02004407 CONDUIT    538.43     0  03:01      1.04    0.24    0.63
  WS02004407WS02004409 CONDUIT    537.86     0  03:01      1.54    0.19    0.48
  WS02004409WS02004410 CONDUIT    537.68     0  03:01      1.02    0.70    0.67
  WS02004410WS02004411 CONDUIT    537.31     0  03:02      0.94    0.73    0.69
  WS02004411WS02004412 CONDUIT    537.18     0  03:02      0.92    0.76    0.69
  WS02004412WS02004413 CONDUIT    537.21     0  03:02      0.82    0.36    0.78
  WS02004413WS02003067 CONDUIT    536.71     0  03:02      1.11    0.23    0.59
  WS02006109WS02006110 CONDUIT    614.09     0  02:37      1.22    1.18    1.00
  WS02006110WS02006113 CONDUIT    590.44     0  02:37      1.42    0.54    0.79
  WS02006111WS02006112 CONDUIT    543.83     0  02:28      1.81    0.26    0.67
  WS02006112WS02006115 CONDUIT    553.27     0  02:11      0.83    0.33    0.88
  WS02006113WS02006111 CONDUIT    564.90     0  02:37      2.48    0.68    0.46
  WS02006115WS02006116 CONDUIT    541.25     0  02:38      0.99    0.69    0.78
  WS02006116WS02004401 CONDUIT    542.29     0  02:38      0.98    0.75    0.86
  WS02006228WS02006109 CONDUIT    605.28     0  02:37      1.20    2.64    1.00
  WS02006229WS02006228 CONDUIT    586.67     0  02:37      1.17    1.94    1.00
  WS02006230WS02006229 CONDUIT    577.78     0  02:37      1.50   12.86    1.00
  WS02006231WS02006230 CONDUIT    580.65     0  01:55      1.57    8.81    1.00
  WS02006232WS02006231 CONDUIT    579.86     0  03:15      1.51    1.22    1.00
  WS02006234WS02006232 CONDUIT    579.04     0  03:15      1.50    1.17    1.00
  WS02006235WS02006234 CONDUIT    574.93     0  02:36      1.49    6.07    1.00
  WS02006238WS02006235 CONDUIT    427.06     0  03:23      1.45    0.95    1.00
  WS02006239WS02006238 CONDUIT    425.49     0  03:23      1.11    1.36    1.00
  WS02006240WS02006239 CONDUIT    424.21     0  03:23      1.24    1.33    1.00
  WS02006242WS02006240 CONDUIT    420.72     0  03:23      1.13    1.67    1.00
  WS02006243WS02006242 CONDUIT    420.63     0  03:23      1.40    0.90    1.00
  WS02006245WS02006243 CONDUIT    419.97     0  03:23      1.45    1.24    1.00
  WS02006247WS02006245 CONDUIT    432.62     0  01:51      1.43    3.43    1.00
  WS02006248WS02006247 CONDUIT    440.41     0  01:51      1.44    0.96    1.00
  WS02006249WS02006248 CONDUIT    441.53     0  01:51      1.36    2.42    1.00
  WS02006251WS02006249 CONDUIT    463.67     0  01:20      1.99    1.34    1.00
  WS02006252WS02006251 CONDUIT    406.66     0  01:52     24.61    1.49    1.00
  WS02006256WS02006235 CONDUIT    288.91     0  00:00      4.23    3.06    1.00
  WSF200WS02003060     CONDUIT    537.06     0  03:03      2.06    0.12    0.28
  YS02001580YS02001583 CONDUIT     78.15     0  01:48      0.57    0.30    1.00
  YS02001583YS02001586 CONDUIT    135.61     0  01:47      0.56    0.21    1.00
  YS02001586YS02001590 CONDUIT    318.34     0  02:30      1.25    0.56    1.00
  YS02001590YS02001593 CONDUIT    318.38     0  02:30      1.13    2.00    1.00
  YS02001593YS02001596 CONDUIT    317.91     0  02:26      1.71    0.50    1.00
  YS02001596YS02001600 CONDUIT    318.17     0  02:30      1.26    0.62    1.00
  YS02001600YS02001601 CONDUIT    318.07     0  02:30      1.12    0.55    1.00
  YS02001601YS02001602 CONDUIT    505.65     0  01:47      1.79    1.83    1.00
  YS02001602YS02001605 CONDUIT    507.43     0  01:47      1.79   10.74    1.00
  YS02001605YS02001607 CONDUIT    508.40     0  01:47      1.80    2.79    1.00
  YS02001607YS02001610 CONDUIT    505.42     0  01:47      0.64    0.48    1.00
  YS02001610YS02001613 CONDUIT    617.85     0  02:08      0.79    0.71    1.00
  YS02001613YS02001616 CONDUIT    617.64     0  02:06      0.79    0.53    1.00
  YS02001616YS02001619 CONDUIT    617.95     0  02:08      0.79    1.07    1.00
  YS02001619YS02001622 CONDUIT   1053.92     0  02:06      1.34    1.55    1.00
  YS02001622YS02001625 CONDUIT   1053.66     0  02:07      1.34    0.56    1.00
  YS02001625YS02001629 CONDUIT    922.10     0  01:51      1.17    0.44    1.00
  YS02001629YS02163301 CONDUIT    921.41     0  01:51      1.17    1.13    1.00
  YS02001633YS02163601 CONDUIT   1344.49     0  01:51      1.71    1.41    1.00
  YS02001641YS02001644 CONDUIT   1343.01     0  01:51      1.71    4.34    1.00
  YS02001644YS02001647 CONDUIT   1724.74     0  01:51      2.22    1.01    1.00
  YS02001647YS02001649 CONDUIT   1724.06     0  01:51      2.30    0.91    1.00
  YS02001649YS02001757 CONDUIT   1898.69     0  01:52      2.46    1.15    1.00
  YS02001652YS02001649 CONDUIT   1268.56     0  02:01      1.62    0.63    1.00
  YS02001655YS02001652 CONDUIT   1268.06     0  02:01      1.61    0.62    1.00
  YS02001658YS02001655 CONDUIT   1268.02     0  02:01      1.85    0.54    1.00
  YS02001661YS02001658 CONDUIT   1268.23     0  02:01      2.25    0.50    1.00
  YS02001664YS02001661 CONDUIT   1267.36     0  02:01      2.20    0.40    0.92
  YS02001745YS02001748 CONDUIT    801.84     0  02:01      2.10    0.31    0.99
  YS02001748YS02001751 CONDUIT    802.46     0  02:01      1.66    0.41    1.00
  YS02001751YS02001754 CONDUIT    802.64     0  02:01      1.42    0.39    1.00
  YS02001754YS02001757 CONDUIT    802.83     0  02:01      1.02    0.32    1.00
  YS02001757CaochengTiaoxuchi CONDUIT   3243.41     0  02:00      4.13    1.40    1.00
  YS02001759YS02001757 CONDUIT   1402.25     0  02:01      1.79    1.00    1.00
  YS02001762YS02001759 CONDUIT    715.79     0  01:56      0.91    0.82    1.00
  YS02001765YS02001762 CONDUIT    714.44     0  01:56      0.91    0.67    1.00
  YS02001767YS02001765 CONDUIT    714.76     0  01:56      0.91    0.90    1.00
  YS02001770YS02001767 CONDUIT    715.24     0  01:55      0.91    2.83    1.00
  YS02001774YS02001770 CONDUIT    851.11     0  02:05      1.08    0.54    1.00
  YS02001779YS02001774 CONDUIT    851.11     0  02:05      1.08    0.43    1.00
  YS02001783YS02001784 CONDUIT   1172.05     0  02:00      2.33    1.62    1.00
  YS02001784YS02001785 CONDUIT   1173.53     0  02:00      2.33    2.73    1.00
  YS02001786YS02001788 CONDUIT   1174.47     0  02:00      2.50    2.26    0.89
  YS02001788YS02001790 CONDUIT   1187.76     0  02:00      2.73    0.88    0.85
  YS02001790YS02001791 CONDUIT   1303.85     0  02:01      3.44    1.42    0.71
  YS02001791YS02001793 CONDUIT   1265.49     0  01:59      6.79    0.54    0.44
  YS02001793JiankangQianchi CONDUIT   1308.07     0  02:00      2.59    0.10    0.65
  YS02001882YS02001884 CONDUIT     44.29     0  01:50      0.16    0.05    1.00
  YS02001884YS02001887 CONDUIT     61.20     0  01:49      0.12    0.08    1.00
  YS02001887YS02001890 CONDUIT   1181.38     0  02:01      1.50    2.02    1.00
  YS02001890YS02001895 CONDUIT    517.58     0  02:02      0.66    0.24    1.00
  YS02001895YS02001898 CONDUIT    517.61     0  02:01      0.66    0.90    1.00
  YS02001898YS02001901 CONDUIT    517.72     0  02:02      0.66    0.33    1.00
  YS02001901YS02001904 CONDUIT    517.78     0  02:02      0.66    0.80    1.00
  YS02001904YS02001907 CONDUIT    517.90     0  02:01      0.66    0.18    1.00
  YS02001907YS02006553 CONDUIT    796.22     0  02:24      0.88    0.94    1.00
  YS02001910YS02001907 CONDUIT   1992.57     0  02:02      2.54    1.12    1.00
  YS02001915YS02001910 CONDUIT   1992.70     0  02:02      2.54    0.99    1.00
  YS02001918YS02001915 CONDUIT    684.07     0  02:02      0.87    0.38    1.00
  YS02001920YS02001918 CONDUIT    683.96     0  02:02      0.87    0.66    1.00
  YS02001923YS02001920 CONDUIT    680.91     0  02:02      0.87    0.31    1.00
  YS02001926YS02001923 CONDUIT    680.98     0  02:03      0.94    0.97    1.00
  YS02001929YS02001926 CONDUIT    680.94     0  02:03      1.09    0.32    1.00
  YS02006553YS02006556 CONDUIT    796.24     0  02:24      1.01    0.68    1.00
  YS02006556YS02006558 CONDUIT    796.94     0  02:24      1.01    0.63    1.00
  YS02006558YS02006561 CONDUIT   1171.84     0  02:00      4.14    2.59    1.00
  YS02006561YS02001783 CONDUIT   1172.66     0  02:00      2.33    0.61    1.00
  YS02163301YS02001633 CONDUIT    921.00     0  01:51      1.17    0.87    1.00
  YS02163601YS02164001 CONDUIT   1343.89     0  01:51      1.71    1.19    1.00
  YS02164001YS02001641 CONDUIT   1343.32     0  01:51      1.71    1.83    1.00
  CC-R1                PUMP       683.00     0  00:00              1.00
  CC-R2                PUMP       683.00     0  00:00              1.00
  CC-S1                PUMP       200.00     0  00:00              1.00
  CC-S2                PUMP       200.00     0  00:00              1.00
  JK-R1                PUMP      1000.00     0  00:00              1.00
  JK-R2                PUMP      1000.00     0  00:00              1.00
  JK-S                 PUMP       300.00     0  00:00              1.00
  
  
  ***************************
  Flow Classification Summary
  ***************************
  
  -------------------------------------------------------------------------------------
                      Adjusted    ---------- Fraction of Time in Flow Class ---------- 
                       /Actual         Up    Down  Sub   Sup   Up    Down  Norm  Inlet 
  Conduit               Length    Dry  Dry   Dry   Crit  Crit  Crit  Crit  Ltd   Ctrl  
  -------------------------------------------------------------------------------------
  1                       1.00   0.00  0.00  0.00  0.00  1.00  0.00  0.00  0.42  0.00
  WS02003060WS02003069    1.00   0.00  0.00  0.00  0.98  0.02  0.00  0.00  0.60  0.00
  WS02003066WSF200        1.00   0.13  0.00  0.00  0.00  0.87  0.00  0.00  0.76  0.00
  WS02003067WS02003066    1.00   0.10  0.02  0.00  0.88  0.00  0.00  0.00  0.00  0.00
  WS02003069WS02003072    1.00   0.00  0.00  0.00  0.99  0.01  0.00  0.00  0.66  0.00
  WS02003072WS02003073    1.00   0.00  0.00  0.00  0.00  0.00  0.00  1.00  0.00  0.00
  WS02004401WS02004402    1.00   0.02  0.00  0.00  0.98  0.00  0.00  0.00  0.00  0.00
  WS02004402WS02004403    1.00   0.02  0.00  0.00  0.97  0.00  0.00  0.00  0.00  0.00
  WS02004403WS02004404    1.00   0.00  0.03  0.00  0.97  0.00  0.00  0.00  0.00  0.00
  WS02004404WS02004405    1.00   0.00  0.00  0.00  1.00  0.00  0.00  0.00  0.01  0.00
  WS02004405WS02004406    1.00   0.00  0.00  0.00  1.00  0.00  0.00  0.00  0.00  0.00
  WS02004406WS02004407    1.00   0.00  0.05  0.00  0.95  0.00  0.00  0.00  0.00  0.00
  WS02004407WS02004409    1.00   0.05  0.00  0.00  0.94  0.01  0.00  0.00  0.94  0.00
  WS02004409WS02004410    1.00   0.05  0.00  0.00  0.95  0.00  0.00  0.00  0.03  0.00
  WS02004410WS02004411    1.00   0.05  0.00  0.00  0.95  0.00  0.00  0.00  0.01  0.00
  WS02004411WS02004412    1.00   0.05  0.00  0.00  0.95  0.00  0.00  0.00  0.00  0.00
  WS02004412WS02004413    1.00   0.05  0.00  0.00  0.94  0.00  0.00  0.00  0.01  0.00
  WS02004413WS02003067    1.00   0.06  0.04  0.00  0.00  0.00  0.90  0.00  0.00  0.00
  WS02006109WS02006110    1.00   0.00  0.01  0.00  0.98  0.00  0.01  0.00  0.00  0.00
  WS02006110WS02006113    1.00   0.01  0.01  0.00  0.98  0.00  0.00  0.00  0.00  0.00
  WS02006111WS02006112    1.00   0.02  0.00  0.00  0.98  0.00  0.00  0.00  0.98  0.00
  WS02006112WS02006115    1.00   0.02  0.00  0.00  0.97  0.00  0.00  0.00  0.00  0.00
  WS02006113WS02006111    1.00   0.02  0.00  0.00  0.00  0.98  0.00  0.00  0.17  0.00
  WS02006115WS02006116    1.00   0.02  0.00  0.00  0.97  0.00  0.00  0.01  0.00  0.00
  WS02006116WS02004401    1.00   0.02  0.00  0.00  0.98  0.00  0.00  0.00  0.00  0.00
  WS02006228WS02006109    1.00   0.00  0.00  0.00  1.00  0.00  0.00  0.00  0.00  0.00
  WS02006229WS02006228    1.00   0.00  0.00  0.00  0.99  0.00  0.00  0.01  0.00  0.00
  WS02006230WS02006229    1.00   0.00  0.00  0.00  0.99  0.00  0.00  0.01  0.00  0.00
  WS02006231WS02006230    1.00   0.00  0.00  0.00  0.35  0.00  0.65  0.00  0.00  0.00
  WS02006232WS02006231    1.00   0.00  0.00  0.00  0.99  0.00  0.01  0.00  0.00  0.00
  WS02006234WS02006232    1.00   0.00  0.00  0.00  1.00  0.00  0.00  0.00  0.09  0.00
  WS02006235WS02006234    1.00   0.00  0.00  0.00  0.87  0.00  0.13  0.00  0.00  0.00
  WS02006238WS02006235    1.00   0.00  0.00  0.00  1.00  0.00  0.00  0.00  0.00  0.00
  WS02006239WS02006238    1.00   0.00  0.00  0.00  1.00  0.00  0.00  0.00  0.22  0.00
  WS02006240WS02006239    1.00   0.00  0.00  0.00  0.72  0.00  0.00  0.28  0.02  0.00
  WS02006242WS02006240    1.00   0.00  0.00  0.00  0.99  0.00  0.00  0.00  0.00  0.00
  WS02006243WS02006242    1.00   0.00  0.00  0.00  0.99  0.00  0.00  0.01  0.41  0.00
  WS02006245WS02006243    1.00   0.00  0.00  0.00  0.76  0.00  0.00  0.24  0.01  0.00
  WS02006247WS02006245    1.00   0.00  0.00  0.00  0.99  0.00  0.00  0.01  0.00  0.00
  WS02006248WS02006247    1.00   0.00  0.00  0.00  0.99  0.00  0.00  0.01  0.20  0.00
  WS02006249WS02006248    1.00   0.00  0.00  0.00  0.57  0.00  0.43  0.00  0.00  0.00
  WS02006251WS02006249    1.00   0.00  0.00  0.00  1.00  0.00  0.00  0.00  0.44  0.00
  WS02006252WS02006251    1.00   0.00  0.47  0.00  0.12  0.00  0.41  0.00  0.00  0.00
  WS02006256WS02006235    1.00   0.00  0.00  0.00  0.99  0.01  0.00  0.00  0.00  0.00
  WSF200WS02003060        1.00   0.00  0.13  0.00  0.21  0.66  0.00  0.00  0.38  0.00
  YS02001580YS02001583    1.00   0.22  0.55  0.00  0.23  0.00  0.00  0.00  0.64  0.00
  YS02001583YS02001586    1.00   0.41  0.30  0.00  0.29  0.00  0.00  0.00  0.64  0.00
  YS02001586YS02001590    1.00   0.13  0.00  0.00  0.45  0.04  0.00  0.38  0.34  0.00
  YS02001590YS02001593    1.00   0.13  0.01  0.00  0.16  0.00  0.71  0.00  0.00  0.00
  YS02001593YS02001596    1.00   0.13  0.00  0.00  0.18  0.01  0.00  0.68  0.02  0.00
  YS02001596YS02001600    1.00   0.13  0.00  0.00  0.23  0.01  0.00  0.63  0.04  0.00
  YS02001600YS02001601    1.00   0.13  0.01  0.00  0.86  0.00  0.00  0.00  0.58  0.00
  YS02001601YS02001602    1.00   0.13  0.01  0.00  0.87  0.00  0.00  0.00  0.00  0.00
  YS02001602YS02001605    1.00   0.13  0.00  0.00  0.87  0.00  0.00  0.00  0.00  0.00
  YS02001605YS02001607    1.00   0.13  0.00  0.00  0.87  0.00  0.00  0.00  0.00  0.00
  YS02001607YS02001610    1.00   0.13  0.01  0.00  0.86  0.00  0.00  0.00  0.01  0.00
  YS02001610YS02001613    1.00   0.13  0.00  0.00  0.87  0.00  0.00  0.00  0.00  0.00
  YS02001613YS02001616    1.00   0.13  0.00  0.00  0.87  0.00  0.00  0.00  0.00  0.00
  YS02001616YS02001619    1.00   0.13  0.00  0.00  0.87  0.00  0.00  0.00  0.00  0.00
  YS02001619YS02001622    1.00   0.13  0.00  0.00  0.87  0.00  0.00  0.00  0.28  0.00
  YS02001622YS02001625    1.00   0.13  0.00  0.00  0.87  0.00  0.00  0.00  0.03  0.00
  YS02001625YS02001629    1.00   0.13  0.04  0.00  0.20  0.00  0.63  0.00  0.00  0.00
  YS02001629YS02163301    1.00   0.15  0.01  0.00  0.84  0.00  0.00  0.00  0.00  0.00
  YS02001633YS02163601    1.00   0.00  0.01  0.00  0.99  0.00  0.00  0.00  0.14  0.00
  YS02001641YS02001644    1.00   0.00  0.01  0.00  0.99  0.00  0.00  0.00  0.00  0.00
  YS02001644YS02001647    1.00   0.00  0.16  0.00  0.84  0.00  0.00  0.00  0.00  0.00
  YS02001647YS02001649    1.00   0.00  0.16  0.00  0.62  0.22  0.00  0.00  0.54  0.00
  YS02001649YS02001757    1.00   0.00  0.00  0.00  0.88  0.12  0.00  0.00  0.39  0.00
  YS02001652YS02001649    1.00   0.00  0.00  0.00  0.97  0.03  0.00  0.00  0.70  0.00
  YS02001655YS02001652    1.00   0.00  0.00  0.00  0.23  0.01  0.00  0.76  0.04  0.00
  YS02001658YS02001655    1.00   0.00  0.14  0.00  0.71  0.15  0.00  0.00  0.63  0.00
  YS02001661YS02001658    1.00   0.14  0.00  0.00  0.55  0.31  0.00  0.00  0.65  0.00
  YS02001664YS02001661    1.00   0.13  0.00  0.00  0.79  0.09  0.00  0.00  0.83  0.00
  YS02001745YS02001748    1.00   0.00  0.00  0.00  0.15  0.00  0.00  0.84  0.05  0.00
  YS02001748YS02001751    1.00   0.00  0.00  0.00  0.87  0.13  0.00  0.00  0.73  0.00
  YS02001751YS02001754    1.00   0.00  0.00  0.00  0.21  0.01  0.00  0.78  0.03  0.00
  YS02001754YS02001757    1.00   0.00  0.00  0.00  1.00  0.00  0.00  0.00  0.75  0.00
  YS02001757CaochengTiaoxuchi    1.00   0.00  0.00  0.00  1.00  0.00  0.00  0.00  0.59  0.00
  YS02001759YS02001757    1.00   0.00  0.00  0.00  0.99  0.01  0.00  0.00  0.50  0.00
  YS02001762YS02001759    1.00   0.00  0.00  0.00  1.00  0.00  0.00  0.00  0.04  0.00
  YS02001765YS02001762    1.00   0.00  0.00  0.00  1.00  0.00  0.00  0.00  0.62  0.00
  YS02001767YS02001765    1.00   0.00  0.00  0.00  1.00  0.00  0.00  0.00  0.01  0.00
  YS02001770YS02001767    1.00   0.00  0.00  0.00  1.00  0.00  0.00  0.00  0.00  0.00
  YS02001774YS02001770    1.00   0.00  0.13  0.00  0.71  0.00  0.16  0.00  0.02  0.00
  YS02001779YS02001774    1.00   0.00  0.00  0.00  1.00  0.00  0.00  0.00  0.73  0.00
  YS02001783YS02001784    1.00   0.00  0.17  0.00  0.83  0.00  0.00  0.00  0.55  0.00
  YS02001784YS02001785    1.00   0.00  0.00  0.00  1.00  0.00  0.00  0.00  0.16  0.00
  YS02001786YS02001788    1.00   0.00  0.00  0.00  0.80  0.20  0.00  0.00  0.00  0.00
  YS02001788YS02001790    1.00   0.00  0.00  0.00  0.21  0.79  0.00  0.00  0.78  0.00
  YS02001790YS02001791    1.00   0.00  0.00  0.00  0.01  0.99  0.00  0.00  0.16  0.00
  YS02001791YS02001793    1.00   0.00  0.00  0.00  0.00  1.00  0.00  0.00  0.01  0.00
  YS02001793JiankangQianchi    1.00   0.00  0.00  0.00  0.95  0.05  0.00  0.00  0.96  0.00
  YS02001882YS02001884    1.00   0.15  0.01  0.00  0.85  0.00  0.00  0.00  0.00  0.00
  YS02001884YS02001887    1.00   0.06  0.05  0.00  0.89  0.00  0.00  0.00  0.00  0.00
  YS02001887YS02001890    1.00   0.00  0.00  0.00  0.97  0.00  0.03  0.00  0.00  0.00
  YS02001890YS02001895    1.00   0.00  0.15  0.00  0.85  0.00  0.00  0.00  0.00  0.00
  YS02001895YS02001898    1.00   0.16  0.00  0.00  0.83  0.00  0.01  0.00  0.00  0.00
  YS02001898YS02001901    1.00   0.16  0.00  0.00  0.84  0.00  0.00  0.00  0.01  0.00
  YS02001901YS02001904    1.00   0.16  0.00  0.00  0.84  0.00  0.00  0.00  0.00  0.00
  YS02001904YS02001907    1.00   0.00  0.15  0.00  0.84  0.00  0.00  0.00  0.00  0.00
  YS02001907YS02006553    1.00   0.00  0.02  0.00  0.98  0.00  0.00  0.00  0.00  0.00
  YS02001910YS02001907    1.00   0.00  0.00  0.00  0.97  0.00  0.00  0.03  0.12  0.00
  YS02001915YS02001910    1.00   0.00  0.00  0.00  0.97  0.03  0.00  0.00  0.13  0.00
  YS02001918YS02001915    1.00   0.00  0.01  0.00  0.98  0.02  0.00  0.00  0.71  0.00
  YS02001920YS02001918    1.00   0.00  0.01  0.00  0.99  0.00  0.00  0.00  0.00  0.00
  YS02001923YS02001920    1.00   0.00  0.00  0.00  1.00  0.00  0.00  0.00  0.89  0.00
  YS02001926YS02001923    1.00   0.00  0.07  0.00  0.09  0.00  0.84  0.00  0.00  0.00
  YS02001929YS02001926    1.00   0.00  0.13  0.00  0.87  0.00  0.00  0.00  0.80  0.00
  YS02006553YS02006556    1.00   0.01  0.00  0.00  0.99  0.00  0.00  0.00  0.03  0.00
  YS02006556YS02006558    1.00   0.00  0.00  0.00  1.00  0.00  0.00  0.00  0.00  0.00
  YS02006558YS02006561    1.00   0.17  0.00  0.00  0.08  0.75  0.00  0.00  0.17  0.00
  YS02006561YS02001783    1.00   0.17  0.00  0.00  0.12  0.71  0.00  0.00  0.66  0.00
  YS02163301YS02001633    1.00   0.00  0.14  0.00  0.86  0.00  0.00  0.00  0.00  0.00
  YS02163601YS02164001    1.00   0.00  0.08  0.00  0.92  0.00  0.00  0.00  0.00  0.00
  YS02164001YS02001641    1.00   0.01  0.07  0.00  0.92  0.00  0.00  0.00  0.05  0.00
  
  
  *************************
  Conduit Surcharge Summary
  *************************
  
  ----------------------------------------------------------------------------
                                                           Hours        Hours 
                         --------- Hours Full --------   Above Full   Capacity
  Conduit                Both Ends  Upstream  Dnstream   Normal Flow   Limited
  ----------------------------------------------------------------------------
  WS02003072WS02003073        0.01      0.01      0.01      1.40         0.01
  WS02004403WS02004404        0.01      0.01      0.01      0.01         0.01
  WS02004404WS02004405        0.01      0.01      0.01      4.39         0.01
  WS02004405WS02004406        0.01      0.01      0.01      0.68         0.01
  WS02006109WS02006110        0.74      0.74      2.57      0.89         0.01
  WS02006110WS02006113        0.01      0.01      2.52      0.01         0.01
  WS02006111WS02006112        0.01      0.01      3.08      0.01         0.01
  WS02006112WS02006115        0.01      0.01      1.02      0.01         0.01
  WS02006228WS02006109        2.43      2.58      2.43      3.27         2.42
  WS02006229WS02006228        2.40      2.45      2.40      2.92         2.39
  WS02006230WS02006229        2.72      2.87      2.72      5.01         2.72
  WS02006231WS02006230        0.77      0.77      0.96      4.77         0.01
  WS02006232WS02006231        0.91      0.91      2.61      0.99         0.01
  WS02006234WS02006232        2.32      2.32      2.61      0.97         0.96
  WS02006235WS02006234        1.25      1.26      2.40      4.57         0.02
  WS02006238WS02006235        2.44      2.44      2.61      0.01         0.01
  WS02006239WS02006238        2.50      2.58      2.50      2.77         2.30
  WS02006240WS02006239        2.42      2.48      2.42      2.77         2.16
  WS02006242WS02006240        2.46      2.46      2.71      2.98         0.01
  WS02006243WS02006242        2.50      2.50      2.64      0.01         0.05
  WS02006245WS02006243        2.47      2.49      2.48      1.98         1.71
  WS02006247WS02006245        2.48      2.54      2.48      4.20         2.46
  WS02006248WS02006247        2.47      2.47      2.51      0.01         0.05
  WS02006249WS02006248        2.45      2.45      2.48      4.18         0.01
  WS02006251WS02006249        2.48      2.50      2.48      2.86         2.39
  WS02006252WS02006251        2.93      2.93      2.93      2.93         0.01
  WS02006256WS02006235        4.59      4.63      6.19      1.32         0.01
  YS02001580YS02001583        0.89      0.89      0.96      0.01         0.01
  YS02001583YS02001586        0.90      0.90      1.06      0.01         0.01
  YS02001586YS02001590        1.07      1.07      1.15      0.01         0.01
  YS02001590YS02001593        1.16      1.16      1.18      1.20         0.01
  YS02001593YS02001596        1.17      1.17      1.29      0.01         0.01
  YS02001596YS02001600        1.35      1.35      1.43      0.01         0.01
  YS02001600YS02001601        1.48      1.48      1.70      0.01         0.01
  YS02001601YS02001602        1.62      1.62      1.74      1.42         0.01
  YS02001602YS02001605        1.58      1.58      1.62      2.46         0.01
  YS02001605YS02001607        1.54      1.58      1.55      1.65         1.53
  YS02001607YS02001610        1.17      1.17      1.20      0.01         0.01
  YS02001610YS02001613        1.16      1.16      1.20      0.01         0.01
  YS02001613YS02001616        1.11      1.11      1.16      0.01         0.01
  YS02001616YS02001619        1.10      1.10      1.11      0.13         0.14
  YS02001619YS02001622        1.09      1.10      1.10      1.10         1.00
  YS02001622YS02001625        1.10      1.10      1.30      0.01         0.01
  YS02001625YS02001629        1.04      1.04      1.30      0.01         0.01
  YS02001629YS02163301        1.30      1.30      1.31      0.08         0.13
  YS02001633YS02163601        1.33      1.33      1.36      0.25         0.26
  YS02001641YS02001644        1.26      1.28      1.26      1.77         1.25
  YS02001644YS02001647        1.02      1.02      1.26      0.02         0.01
  YS02001647YS02001649        1.02      1.02      1.18      0.01         0.01
  YS02001649YS02001757        1.18      1.18      1.24      0.11         0.04
  YS02001652YS02001649        0.98      0.98      1.18      0.01         0.01
  YS02001655YS02001652        0.75      0.75      0.96      0.01         0.01
  YS02001658YS02001655        0.43      0.43      0.75      0.01         0.01
  YS02001661YS02001658        0.16      0.16      0.43      0.01         0.01
  YS02001664YS02001661        0.01      0.01      0.21      0.01         0.01
  YS02001745YS02001748        0.01      0.01      0.34      0.01         0.01
  YS02001748YS02001751        0.39      0.39      0.59      0.01         0.01
  YS02001751YS02001754        0.59      0.59      0.87      0.01         0.01
  YS02001754YS02001757        0.93      0.93      1.24      0.01         0.01
  YS02001757CaochengTiaoxuchi        1.24      1.24      2.24      0.50         0.47
  YS02001759YS02001757        1.16      1.16      1.24      0.01         0.02
  YS02001762YS02001759        1.13      1.13      1.16      0.01         0.02
  YS02001765YS02001762        1.08      1.08      1.13      0.01         0.01
  YS02001767YS02001765        1.04      1.04      1.08      0.01         0.02
  YS02001770YS02001767        1.04      1.04      1.04      0.74         0.64
  YS02001774YS02001770        1.01      1.01      1.11      0.01         0.01
  YS02001779YS02001774        0.85      0.85      1.11      0.01         0.01
  YS02001783YS02001784        0.72      0.75      0.72      0.93         0.72
  YS02001784YS02001785        0.59      0.72      0.59      1.23         0.59
  YS02001786YS02001788        0.01      0.59      0.01      1.07         0.01
  YS02001790YS02001791        0.01      0.01      0.01      0.70         0.01
  YS02001793JiankangQianchi        0.01      0.01      7.60      0.01         0.01
  YS02001882YS02001884        0.68      0.68      0.70      0.01         0.01
  YS02001884YS02001887        0.72      0.72      0.74      0.01         0.01
  YS02001887YS02001890        0.76      0.76      0.77      0.22         0.01
  YS02001890YS02001895        0.67      0.67      0.79      0.01         0.01
  YS02001895YS02001898        0.66      0.66      0.67      0.01         0.01
  YS02001898YS02001901        0.67      0.67      0.72      0.01         0.01
  YS02001901YS02001904        0.71      0.71      0.72      0.01         0.01
  YS02001904YS02001907        0.71      0.71      1.04      0.01         0.01
  YS02001907YS02006553        1.25      1.25      1.33      0.01         0.01
  YS02001910YS02001907        0.79      0.79      1.02      0.10         0.11
  YS02001915YS02001910        0.68      0.68      0.79      0.01         0.01
  YS02001918YS02001915        0.58      0.58      0.68      0.01         0.01
  YS02001920YS02001918        0.58      0.58      0.60      0.01         0.01
  YS02001923YS02001920        0.53      0.53      0.60      0.01         0.01
  YS02001926YS02001923        0.24      0.24      0.28      0.01         0.01
  YS02001929YS02001926        0.12      0.12      0.28      0.01         0.01
  YS02006553YS02006556        0.90      0.90      1.04      0.01         0.01
  YS02006556YS02006558        0.96      0.96      1.06      0.01         0.01
  YS02006558YS02006561        0.62      0.88      0.62      1.17         0.62
  YS02006561YS02001783        0.54      0.54      0.75      0.01         0.01
  YS02163301YS02001633        1.31      1.31      1.34      0.01         0.01
  YS02163601YS02164001        1.28      1.28      1.36      0.09         0.01
  YS02164001YS02001641        1.28      1.28      1.28      0.80         0.76
  
  
  ***************
  Pumping Summary
  ***************
  
  ---------------------------------------------------------------------------------------------------------
                                                  Min       Avg       Max     Total     Power    % Time Off
                        Percent   Number of      Flow      Flow      Flow    Volume     Usage    Pump Curve
  Pump                 Utilized   Start-Ups       LPS       LPS       LPS  10^6 ltr     Kw-hr    Low   High
  ---------------------------------------------------------------------------------------------------------
  CC-R1                   21.69           4      0.00    683.00    683.00     4.266     81.59    0.0   13.5
  CC-R2                   20.65           3      0.00    683.00    683.00     4.061     78.02    0.0    9.2
  CC-S1                   52.87           5      0.00    200.00    200.00     3.046     17.66    0.0    0.0
  CC-S2                   36.59           8      0.00    200.00    200.00     2.108     11.79    0.0    0.0
  JK-R1                    7.65          14      0.00   1000.00   1000.00     2.202     23.00    0.0    0.0
  JK-R2                    4.80          11      0.00   1000.00   1000.00     1.381     12.67    0.0    0.0
  JK-S                    16.45          18      0.00    300.00    300.00     1.421     21.73    0.0    0.0
  

  Analysis begun on:  Mon Apr 14 20:59:50 2025
  Analysis ended on:  Mon Apr 14 20:59:52 2025
  Total elapsed time: 00:00:02