
  EPA STORM WATER MANAGEMENT MODEL - VERSION 5.2 (Build 5.2.4)
  PYSWMM TOOLKIT API - VERSION v1.0 (2023-11-27)
  ------------------------------------------------------------

  WARNING 04: minimum elevation drop used for Conduit WS02004404WS02004405
  WARNING 03: negative offset ignored for Link YS02001904YS02001907
  
  ****************
  Analysis Options
  ****************
  Flow Units ............... LPS
  Process Models:
    Rainfall/Runoff ........ YES
    RDII ................... NO
    Snowmelt ............... NO
    Groundwater ............ NO
    Flow Routing ........... YES
    Ponding Allowed ........ NO
    Water Quality .......... NO
  Infiltration Method ...... HORTON
  Flow Routing Method ...... DYNWAVE
  Surcharge Method ......... EXTRAN
  Starting Date ............ 08/28/2015 08:00:00
  Ending Date .............. 08/28/2015 16:00:00
  Antecedent Dry Days ...... 8.0
  Report Time Step ......... 00:01:00
  Wet Time Step ............ 00:01:00
  Dry Time Step ............ 00:01:00
  Routing Time Step ........ 30.00 sec
  Variable Time Step ....... YES
  Maximum Trials ........... 8
  Number of Threads ........ 4
  Head Tolerance ........... 0.001500 m
  
  
  **************************        Volume         Depth
  Runoff Quantity Continuity     hectare-m            mm
  **************************     ---------       -------
  Total Precipitation ......         1.839        55.437
  Evaporation Loss .........         0.000         0.000
  Infiltration Loss ........         0.097         2.935
  Surface Runoff ...........         1.709        51.520
  Final Storage ............         0.033         0.994
  Continuity Error (%) .....        -0.020
  
  
  **************************        Volume        Volume
  Flow Routing Continuity        hectare-m      10^6 ltr
  **************************     ---------     ---------
  Dry Weather Inflow .......         0.025         0.251
  Wet Weather Inflow .......         1.709        17.089
  Groundwater Inflow .......         0.000         0.000
  RDII Inflow ..............         0.000         0.000
  External Inflow ..........         0.083         0.834
  External Outflow .........         1.466        14.662
  Flooding Loss ............         0.404         4.042
  Evaporation Loss .........         0.000         0.000
  Exfiltration Loss ........         0.000         0.000
  Initial Stored Volume ....         0.243         2.431
  Final Stored Volume ......         0.196         1.961
  Continuity Error (%) .....        -0.295
  
  
  *************************
  Highest Continuity Errors
  *************************
  Node YS02001583 (-11.98%)
  Node YS02001884 (4.94%)
  Node YS02001774 (1.15%)
  
  
  ***************************
  Time-Step Critical Elements
  ***************************
  Link WS02006252WS02006251 (44.17%)
  Link WS02006238WS02006235 (14.53%)
  Link WS02004404WS02004405 (13.43%)
  Link WS02006235WS02006234 (8.18%)
  Link YS02001791YS02001793 (6.26%)
  
  
  ********************************
  Highest Flow Instability Indexes
  ********************************
  Link WS02006113WS02006111 (52)
  Link WS02006111WS02006112 (27)
  Link WS02006238WS02006235 (12)
  Link WS02006256WS02006235 (11)
  Link WS02006252WS02006251 (11)
  
  
  *********************************
  Most Frequent Nonconverging Nodes
  *********************************
  Node CC-1 (10.87%)
  Node CC-2 (10.87%)
  Node JK-1 (10.87%)
  Node JK-2 (10.87%)
  Node WSC (10.87%)
  
  
  *************************
  Routing Time Step Summary
  *************************
  Minimum Time Step           :     0.01 sec
  Average Time Step           :     1.93 sec
  Maximum Time Step           :     7.04 sec
  % of Time in Steady State   :     0.00
  Average Iterations per Step :     2.94
  % of Steps Not Converging   :    10.87
  Time Step Frequencies       :
     30.000 - 13.228 sec      :     0.00 %
     13.228 -  5.833 sec      :     8.76 %
      5.833 -  2.572 sec      :    17.02 %
      2.572 -  1.134 sec      :    23.15 %
      1.134 -  0.500 sec      :    51.06 %
  
  
  ***************************
  Subcatchment Runoff Summary
  ***************************
  
  ------------------------------------------------------------------------------------------------------------------------------
                            Total      Total      Total      Total     Imperv       Perv      Total       Total     Peak  Runoff
                           Precip      Runon       Evap      Infil     Runoff     Runoff     Runoff      Runoff   Runoff   Coeff
  Subcatchment                 mm         mm         mm         mm         mm         mm         mm    10^6 ltr      LPS
  ------------------------------------------------------------------------------------------------------------------------------
  sub60                     55.44       0.00       0.00       1.79      47.58       4.87      52.45        0.69   422.04   0.946
  sub61                     55.44       0.00       0.00       2.59      44.88       6.84      51.72        0.95   582.42   0.933
  sub62                     55.44       0.00       0.00       1.19      49.71       3.24      52.96        1.45   822.79   0.955
  sub63                     55.44       0.00       0.00       4.74      38.39      11.34      49.72        1.13   640.64   0.897
  sub64                     55.44       0.00       0.00       2.40      45.91       5.92      51.83        1.24   660.02   0.935
  sub65                     55.44       0.00       0.00       2.08      46.98       5.13      52.11        1.43   737.82   0.940
  sub66                     55.44       0.00       0.00       5.81      38.28      10.27      48.55        2.26   940.88   0.876
  sub67                     55.44       0.00       0.00       1.15      49.75       3.28      53.04        0.99   643.60   0.957
  sub68                     55.44       0.00       0.00       2.14      46.49       5.62      52.11        1.43   841.05   0.940
  sub69                     55.44       0.00       0.00       1.89      47.01       6.43      53.44        1.98   987.98   0.964
  sub70                     55.44       0.00       0.00       6.21      36.43      12.64      49.07        1.42   532.25   0.885
  sub71                     55.44       0.00       0.00       1.22      49.67       3.22      52.89        1.38   718.58   0.954
  sub72                     55.44       0.00       0.00       1.08      50.15       2.80      52.95        0.73   344.39   0.955
  
  
  ******************
  Node Depth Summary
  ******************
  
  ---------------------------------------------------------------------------------
                                 Average  Maximum  Maximum  Time of Max    Reported
                                   Depth    Depth      HGL   Occurrence   Max Depth
  Node                 Type       Meters   Meters   Meters  days hr:min      Meters
  ---------------------------------------------------------------------------------
  WS02003060           JUNCTION     0.25     0.38     5.32     0  02:51        0.38
  WS02003066           JUNCTION     0.21     0.30     5.85     0  02:50        0.30
  WS02003067           JUNCTION     0.53     0.70     6.02     0  02:50        0.70
  WS02003069           JUNCTION     0.28     0.43     5.01     0  02:51        0.43
  WS02003072           JUNCTION     0.35     0.50     4.87     0  02:52        0.50
  WS02003073           JUNCTION     0.20     0.30     4.36     0  02:54        0.30
  WS02004401           JUNCTION     0.62     0.85     6.85     0  02:48        0.85
  WS02004402           JUNCTION     0.65     0.88     6.84     0  02:47        0.88
  WS02004403           JUNCTION     0.67     0.89     6.82     0  02:48        0.89
  WS02004404           JUNCTION     0.75     0.96     6.81     0  02:48        0.96
  WS02004405           JUNCTION     0.74     0.96     6.81     0  02:46        0.95
  WS02004406           JUNCTION     0.76     0.96     6.79     0  02:40        0.96
  WS02004407           JUNCTION     0.19     0.30     6.61     0  02:48        0.30
  WS02004409           JUNCTION     0.43     0.67     6.44     0  02:51        0.67
  WS02004410           JUNCTION     0.45     0.68     6.40     0  02:51        0.68
  WS02004411           JUNCTION     0.47     0.69     6.37     0  02:51        0.69
  WS02004412           JUNCTION     0.49     0.70     6.34     0  02:52        0.70
  WS02004413           JUNCTION     0.65     0.86     6.33     0  02:52        0.86
  WS02006109           JUNCTION     0.68     1.23     7.84     0  02:23        1.00
  WS02006110           JUNCTION     0.68     1.57     8.16     0  02:23        0.98
  WS02006111           JUNCTION     0.19     0.29     6.99     0  02:30        0.29
  WS02006112           JUNCTION     0.78     1.07     6.95     0  02:24        1.05
  WS02006113           JUNCTION     0.29     0.46     7.35     0  02:12        0.45
  WS02006115           JUNCTION     0.50     0.75     6.89     0  02:20        0.75
  WS02006116           JUNCTION     0.59     0.83     6.87     0  02:45        0.83
  WS02006228           JUNCTION     0.68     1.43     8.08     0  02:22        1.02
  WS02006229           JUNCTION     0.65     1.54     8.23     0  02:22        1.04
  WS02006230           JUNCTION     0.65     1.78     8.52     0  02:22        1.30
  WS02006231           JUNCTION     0.45     1.53     8.65     0  02:22        1.03
  WS02006232           JUNCTION     0.59     1.66     8.70     0  02:22        1.28
  WS02006234           JUNCTION     0.52     1.67     8.83     0  04:00        1.44
  WS02006235           JUNCTION     0.55     1.77     8.93     0  02:10        1.72
  WS02006238           JUNCTION     0.58     1.84     8.98     0  02:10        1.82
  WS02006239           JUNCTION     0.55     1.94     9.15     0  03:50        1.94
  WS02006240           JUNCTION     0.52     1.88     9.17     0  03:50        1.88
  WS02006242           JUNCTION     0.59     1.55     8.82     0  02:10        1.55
  WS02006243           JUNCTION     0.50     1.48     8.90     0  03:50        1.48
  WS02006245           JUNCTION     0.50     1.54     9.03     0  03:50        1.54
  WS02006247           JUNCTION     0.52     1.46     8.96     0  03:50        1.46
  WS02006248           JUNCTION     0.48     1.10     8.69     0  02:10        1.10
  WS02006249           JUNCTION     0.51     1.09     8.69     0  01:54        1.09
  WS02006251           JUNCTION     0.50     1.59     9.26     0  02:22        1.16
  WS02006252           JUNCTION     0.37     1.50     9.74     0  00:00        0.73
  WS02006256           JUNCTION     1.00     2.35     9.28     0  00:00        2.35
  WSF200               JUNCTION     0.18     0.29     5.52     0  02:50        0.29
  YS02001580           JUNCTION     0.08     1.05     9.59     0  01:46        0.77
  YS02001583           JUNCTION     0.12     1.14     9.64     0  01:46        0.82
  YS02001586           JUNCTION     0.17     1.13     9.30     0  01:45        1.13
  YS02001590           JUNCTION     0.26     1.40     9.26     0  01:45        1.40
  YS02001593           JUNCTION     0.19     1.46     9.32     0  01:44        1.29
  YS02001596           JUNCTION     0.26     1.80     9.22     0  01:45        1.80
  YS02001600           JUNCTION     0.31     1.87     9.00     0  01:45        1.87
  YS02001601           JUNCTION     0.49     2.06     8.90     0  01:45        2.06
  YS02001602           JUNCTION     0.41     1.87     8.77     0  01:45        1.87
  YS02001605           JUNCTION     0.38     1.78     8.68     0  01:45        1.78
  YS02001607           JUNCTION     0.39     1.65     8.49     0  02:09        1.64
  YS02001610           JUNCTION     0.43     1.68     8.48     0  01:46        1.68
  YS02001613           JUNCTION     0.39     1.66     8.50     0  01:46        1.66
  YS02001616           JUNCTION     0.32     1.61     8.52     0  01:49        1.61
  YS02001619           JUNCTION     0.30     1.61     8.54     0  01:49        1.61
  YS02001622           JUNCTION     0.29     1.59     8.49     0  01:49        1.59
  YS02001625           JUNCTION     0.56     1.78     8.38     0  01:46        1.78
  YS02001629           JUNCTION     0.40     1.85     8.40     0  01:46        1.85
  YS02001633           JUNCTION     0.48     2.08     8.53     0  01:47        2.08
  YS02001641           JUNCTION     0.47     2.01     8.45     0  01:49        2.01
  YS02001644           JUNCTION     0.46     1.92     8.35     0  01:47        1.92
  YS02001647           JUNCTION     0.25     1.82     8.43     0  01:49        1.72
  YS02001649           JUNCTION     0.29     2.05     8.44     0  01:49        1.91
  YS02001652           JUNCTION     0.19     2.16     8.76     0  01:48        1.75
  YS02001655           JUNCTION     0.15     2.20     9.05     0  01:48        1.53
  YS02001658           JUNCTION     0.10     2.30     9.44     0  01:49        1.28
  YS02001661           JUNCTION     0.13     1.41     8.81     0  01:50        1.05
  YS02001664           JUNCTION     0.04     0.62     8.55     0  01:50        0.45
  YS02001745           JUNCTION     0.05     0.90     8.42     0  01:49        0.87
  YS02001748           JUNCTION     0.09     2.27     9.35     0  01:49        1.27
  YS02001751           JUNCTION     0.12     2.20     9.08     0  01:49        1.42
  YS02001754           JUNCTION     0.17     2.20     8.81     0  01:49        1.64
  YS02001757           JUNCTION     0.32     2.21     8.47     0  01:49        1.93
  YS02001759           JUNCTION     0.26     2.19     8.56     0  01:49        1.93
  YS02001762           JUNCTION     0.25     2.15     8.55     0  01:49        1.92
  YS02001765           JUNCTION     0.23     2.10     8.55     0  01:48        1.89
  YS02001767           JUNCTION     0.23     2.03     8.52     0  01:48        1.88
  YS02001770           JUNCTION     0.24     1.95     8.44     0  01:48        1.91
  YS02001774           JUNCTION     0.30     2.05     8.47     0  01:48        1.97
  YS02001779           JUNCTION     0.15     1.68     8.37     0  01:48        1.68
  YS02001783           JUNCTION     0.21     1.66     7.80     0  01:48        1.22
  YS02001784           JUNCTION     0.22     1.36     7.43     0  01:48        1.12
  YS02001786           JUNCTION     0.19     1.04     7.07     0  01:48        0.92
  YS02001788           JUNCTION     0.13     0.62     6.60     0  01:48        0.62
  YS02001790           JUNCTION     0.16     0.72     6.37     0  01:54        0.72
  YS02001791           JUNCTION     0.10     0.44     5.91     0  01:50        0.43
  YS02001793           JUNCTION     0.05     0.29     5.12     0  02:01        0.29
  YS02001882           JUNCTION     0.27     1.83     8.55     0  01:47        1.68
  YS02001884           JUNCTION     0.36     1.90     8.52     0  01:47        1.77
  YS02001887           JUNCTION     0.44     1.92     8.46     0  01:47        1.85
  YS02001890           JUNCTION     0.47     1.81     8.32     0  01:47        1.81
  YS02001895           JUNCTION     0.24     1.75     8.50     0  01:47        1.56
  YS02001898           JUNCTION     0.25     1.77     8.51     0  01:47        1.56
  YS02001901           JUNCTION     0.37     1.87     8.48     0  01:47        1.68
  YS02001904           JUNCTION     0.35     1.85     8.48     0  01:47        1.64
  YS02001907           JUNCTION     0.67     1.96     8.25     0  01:47        1.96
  YS02001910           JUNCTION     0.46     2.10     8.61     0  01:47        1.99
  YS02001915           JUNCTION     0.27     2.00     8.72     0  01:47        1.96
  YS02001918           JUNCTION     0.14     1.81     8.88     0  01:47        1.81
  YS02001920           JUNCTION     0.22     2.12     9.13     0  01:48        1.78
  YS02001923           JUNCTION     0.11     2.03     9.29     0  01:48        1.50
  YS02001926           JUNCTION     0.14     1.90     9.35     0  01:48        1.31
  YS02001929           JUNCTION     0.07     1.78     9.47     0  01:48        1.14
  YS02006553           JUNCTION     0.67     2.09     8.38     0  01:48        1.97
  YS02006556           JUNCTION     0.65     2.21     8.52     0  01:48        1.98
  YS02006558           JUNCTION     0.69     2.29     8.55     0  01:48        2.03
  YS02006561           JUNCTION     0.13     1.52     8.18     0  01:48        0.89
  YS02163301           JUNCTION     0.42     1.96     8.48     0  01:49        1.96
  YS02163601           JUNCTION     0.52     2.08     8.48     0  01:47        2.08
  YS02164001           JUNCTION     0.45     2.04     8.50     0  01:49        2.04
  CC-1                 OUTFALL      0.00     0.00     0.00     0  00:00        0.00
  CC-2                 OUTFALL      0.00     0.00     0.00     0  00:00        0.00
  JK-1                 OUTFALL      0.00     0.00     0.00     0  00:00        0.00
  JK-2                 OUTFALL      0.00     0.00     0.00     0  00:00        0.00
  WSC                  OUTFALL      0.20     0.30     0.97     0  02:54        0.30
  CC-storage           STORAGE      0.87     1.58     7.08     0  02:19        1.58
  JK-storage           STORAGE      2.97     4.23     5.03     0  01:51        4.19
  
  
  *******************
  Node Inflow Summary
  *******************
  
  -------------------------------------------------------------------------------------------------
                                  Maximum  Maximum                  Lateral       Total        Flow
                                  Lateral    Total  Time of Max      Inflow      Inflow     Balance
                                   Inflow   Inflow   Occurrence      Volume      Volume       Error
  Node                 Type           LPS      LPS  days hr:min    10^6 ltr    10^6 ltr     Percent
  -------------------------------------------------------------------------------------------------
  WS02003060           JUNCTION     16.53   552.65     0  02:50       0.476        6.18       0.032
  WS02003066           JUNCTION      0.00   536.09     0  02:52           0        5.71       0.022
  WS02003067           JUNCTION      0.00   536.08     0  02:52           0        5.71       0.071
  WS02003069           JUNCTION      0.32   552.95     0  02:51     0.00922        6.19       0.056
  WS02003072           JUNCTION      0.00   552.92     0  02:52           0        6.18       0.103
  WS02003073           JUNCTION      1.82   554.73     0  02:53      0.0524        6.23       0.080
  WS02004401           JUNCTION      0.00   538.87     0  02:30           0        5.81       0.170
  WS02004402           JUNCTION      0.00   536.33     0  02:39           0         5.8       0.173
  WS02004403           JUNCTION      0.00   536.26     0  02:47           0        5.79       0.169
  WS02004404           JUNCTION      0.16   536.29     0  02:39     0.00467        5.78       0.144
  WS02004405           JUNCTION      0.04   536.34     0  02:40      0.0011        5.77       0.211
  WS02004406           JUNCTION      0.00   536.41     0  02:40           0        5.76       0.352
  WS02004407           JUNCTION      0.00   536.21     0  02:48           0        5.74       0.016
  WS02004409           JUNCTION      0.00   536.18     0  02:48           0        5.74       0.040
  WS02004410           JUNCTION      0.00   536.13     0  02:49           0        5.74       0.068
  WS02004411           JUNCTION      0.00   536.10     0  02:49           0        5.73       0.090
  WS02004412           JUNCTION      0.00   536.11     0  02:49           0        5.73       0.122
  WS02004413           JUNCTION      0.00   536.11     0  02:49           0        5.72       0.220
  WS02006109           JUNCTION      1.23   567.30     0  02:28      0.0354        5.85       0.167
  WS02006110           JUNCTION      0.00   569.71     0  02:28           0        5.84       0.112
  WS02006111           JUNCTION      0.00   560.63     0  02:57           0        5.83       0.007
  WS02006112           JUNCTION      0.00   542.61     0  02:30           0        5.83       0.291
  WS02006113           JUNCTION      0.00   574.11     0  02:28           0        5.84       0.033
  WS02006115           JUNCTION      0.00   560.03     0  02:30           0        5.82       0.106
  WS02006116           JUNCTION      0.00   546.55     0  02:30           0        5.81       0.069
  WS02006228           JUNCTION      0.00   562.21     0  02:28           0        5.82       0.062
  WS02006229           JUNCTION      0.00   560.78     0  02:28           0        5.82       0.067
  WS02006230           JUNCTION     10.28   593.97     0  03:39       0.296        5.83       0.056
  WS02006231           JUNCTION      0.00   574.67     0  02:55           0        5.53       0.007
  WS02006232           JUNCTION      0.00   573.86     0  02:55           0        5.54       0.112
  WS02006234           JUNCTION      0.00   569.60     0  02:55           0        5.53      -0.141
  WS02006235           JUNCTION      0.00   563.82     0  03:39           0         5.6       0.102
  WS02006238           JUNCTION      0.00   423.64     0  02:25           0        4.72      -0.168
  WS02006239           JUNCTION      0.00   422.87     0  03:02           0        4.68      -0.129
  WS02006240           JUNCTION      0.00   420.03     0  02:25           0        4.65      -0.048
  WS02006242           JUNCTION      0.00   420.54     0  03:02           0        4.62      -0.022
  WS02006243           JUNCTION      0.00   419.59     0  03:02           0         4.6      -0.151
  WS02006245           JUNCTION      0.00   419.32     0  02:25           0         4.6       0.155
  WS02006247           JUNCTION      0.00   418.82     0  03:50           0         4.6      -0.011
  WS02006248           JUNCTION      0.00   418.30     0  02:25           0         4.6       0.031
  WS02006249           JUNCTION      0.00   459.02     0  00:00           0        4.83       0.181
  WS02006251           JUNCTION      0.08   408.46     0  01:54     0.00222        4.83       0.010
  WS02006252           JUNCTION      0.00   400.00     0  00:00           0        4.82      -0.087
  WS02006256           JUNCTION      0.00   300.00     0  00:00           0        1.33      -0.618
  WSF200               JUNCTION      0.00   536.09     0  02:50           0         5.7       0.005
  YS02001580           JUNCTION      0.00   137.58     0  01:46           0     0.00435       3.052
  YS02001583           JUNCTION      0.00   220.95     0  01:46           0      0.0145     -10.699
  YS02001586           JUNCTION    532.25   532.40     0  01:54        1.42        1.43       0.112
  YS02001590           JUNCTION      0.00   318.00     0  02:05           0        1.24      -0.037
  YS02001593           JUNCTION      0.00   318.03     0  02:05           0        1.24       0.001
  YS02001596           JUNCTION      0.00   318.02     0  02:03           0        1.24      -0.012
  YS02001600           JUNCTION      0.00   318.01     0  01:50           0        1.24       0.006
  YS02001601           JUNCTION    987.98  1305.46     0  01:52        1.98        3.22       0.018
  YS02001602           JUNCTION      0.00   557.17     0  01:45           0        2.17       0.018
  YS02001605           JUNCTION      0.00   557.68     0  01:45           0        2.07       0.025
  YS02001607           JUNCTION      0.00   558.47     0  01:45           0        2.07       0.098
  YS02001610           JUNCTION      0.00   541.67     0  01:45           0         2.1       0.107
  YS02001613           JUNCTION      0.00   547.82     0  01:45           0        1.74       0.097
  YS02001616           JUNCTION      0.00   552.77     0  01:45           0        1.74       0.021
  YS02001619           JUNCTION    940.88   961.69     0  01:46        2.26        3.96       0.002
  YS02001622           JUNCTION      0.00   937.76     0  01:46           0        3.93      -0.010
  YS02001625           JUNCTION      0.00  1068.53     0  01:53           0        3.99       0.216
  YS02001629           JUNCTION      0.00   931.93     0  01:46           0         3.3      -0.012
  YS02001633           JUNCTION    738.02  1437.71     0  01:47        1.44        4.65       0.072
  YS02001641           JUNCTION      0.00  1436.90     0  01:47           0        4.58       0.060
  YS02001644           JUNCTION    660.06  1914.15     0  01:47        1.25        5.82       0.051
  YS02001647           JUNCTION      0.00  1913.90     0  01:47           0        5.72       0.004
  YS02001649           JUNCTION      0.00  2170.70     0  01:48           0        6.86       0.003
  YS02001652           JUNCTION      0.00   797.71     0  01:51           0        1.13      -0.120
  YS02001655           JUNCTION      0.15   797.56     0  01:51     0.00443        1.13      -0.096
  YS02001658           JUNCTION      0.00   796.12     0  01:51           0        1.13      -0.082
  YS02001661           JUNCTION      0.00   785.98     0  01:50           0        1.13       0.015
  YS02001664           JUNCTION    640.64   640.64     0  01:51        1.13        1.13      -0.013
  YS02001745           JUNCTION    422.04   593.58     0  01:49       0.689       0.691       0.255
  YS02001748           JUNCTION      0.04   710.67     0  01:49      0.0013       0.692      -0.443
  YS02001751           JUNCTION      0.01   546.29     0  01:50    0.000317       0.701       0.063
  YS02001754           JUNCTION      0.26   546.68     0  01:50     0.00749       0.715      -0.196
  YS02001757           JUNCTION      0.00  3436.03     0  01:50           0        9.97       0.039
  YS02001759           JUNCTION    582.46  1369.40     0  01:49        0.95         2.4      -0.018
  YS02001762           JUNCTION      0.00   791.45     0  01:49           0        1.45       0.002
  YS02001765           JUNCTION      0.00   792.55     0  01:49           0        1.45      -0.008
  YS02001767           JUNCTION      0.54   794.98     0  01:49      0.0154        1.45      -0.010
  YS02001770           JUNCTION    822.94   822.94     0  01:51        1.46         1.5      -0.040
  YS02001774           JUNCTION      0.00   525.28     0  01:48           0      0.0813       1.164
  YS02001779           JUNCTION      0.01   527.35     0  01:48    0.000144      0.0373      -1.757
  YS02001783           JUNCTION      0.00  1160.16     0  01:49           0         3.8       0.005
  YS02001784           JUNCTION      1.06  1161.16     0  01:49      0.0305        3.83       0.013
  YS02001786           JUNCTION      0.06  1161.40     0  01:49     0.00162        3.83       0.019
  YS02001788           JUNCTION      0.07  1161.33     0  01:49     0.00204        3.83       0.008
  YS02001790           JUNCTION      0.15  1169.75     0  01:48     0.00446        3.83       0.023
  YS02001791           JUNCTION      0.00  1285.25     0  01:54           0        3.83      -0.024
  YS02001793           JUNCTION      0.00  1239.39     0  01:50           0        3.83       0.006
  YS02001882           JUNCTION      0.00   116.49     0  01:47           0      0.0134       3.691
  YS02001884           JUNCTION      0.00   128.68     0  01:46           0      0.0492       5.193
  YS02001887           JUNCTION    644.05   644.07     0  01:50       0.999        1.03       0.421
  YS02001890           JUNCTION      0.00   643.91     0  01:49           0       0.992       0.498
  YS02001895           JUNCTION      0.00   541.34     0  01:47           0        0.96       0.164
  YS02001898           JUNCTION      0.00   541.51     0  01:47           0       0.958      -0.005
  YS02001901           JUNCTION      0.00   542.08     0  01:47           0        0.96       0.334
  YS02001904           JUNCTION      0.00   542.13     0  01:47           0       0.965       0.276
  YS02001907           JUNCTION      0.00  1630.58     0  01:49           0        3.15       0.537
  YS02001910           JUNCTION      0.00  1108.35     0  01:49           0        2.19       0.326
  YS02001915           JUNCTION    718.60  1108.39     0  01:49        1.38        2.24       0.060
  YS02001918           JUNCTION      0.00   584.25     0  01:47           0       0.893       0.015
  YS02001920           JUNCTION      2.87   620.20     0  01:47      0.0827       0.871       0.101
  YS02001923           JUNCTION      0.04   665.43     0  01:47     0.00109       0.771      -0.044
  YS02001926           JUNCTION      0.05   995.96     0  01:48      0.0015       0.751      -0.057
  YS02001929           JUNCTION    344.39   813.92     0  01:48       0.728       0.734      -0.095
  YS02006553           JUNCTION      0.00   793.96     0  02:07           0        2.39       0.491
  YS02006556           JUNCTION      0.00   793.61     0  02:07           0         2.4       0.326
  YS02006558           JUNCTION    841.93  1174.92     0  01:48        1.46        3.83       0.090
  YS02006561           JUNCTION      0.00  1173.90     0  01:48           0         3.8      -0.000
  YS02163301           JUNCTION      0.00   923.57     0  01:47           0        3.29       0.047
  YS02163601           JUNCTION      0.11  1437.66     0  01:47     0.00317        4.57       0.105
  YS02164001           JUNCTION      0.00  1437.39     0  01:47           0        4.57       0.048
  CC-1                 OUTFALL       0.00   683.00     0  00:00           0        3.13       0.000
  CC-2                 OUTFALL       0.00   683.00     0  00:00           0        2.84       0.000
  JK-1                 OUTFALL       0.00  1000.00     0  00:00           0        1.71       0.000
  JK-2                 OUTFALL       0.00  1000.00     0  00:00           0       0.752       0.000
  WSC                  OUTFALL       0.00   554.73     0  02:54           0        6.22       0.000
  CC-storage           STORAGE       0.00  3436.08     0  01:50           0        12.2      -0.240
  JK-storage           STORAGE       0.00  1225.28     0  01:55           0        3.98       0.157
  
  
  **********************
  Node Surcharge Summary
  **********************
  
  Surcharging occurs when water rises above the top of the highest conduit.
  ---------------------------------------------------------------------
                                               Max. Height   Min. Depth
                                   Hours       Above Crown    Below Rim
  Node                 Type      Surcharged         Meters       Meters
  ---------------------------------------------------------------------
  WS02006109           JUNCTION        2.23          0.405        1.415
  WS02006110           JUNCTION        0.73          0.664        1.186
  WS02006112           JUNCTION        0.70          0.068        1.612
  WS02006228           JUNCTION        2.22          0.599        1.601
  WS02006229           JUNCTION        2.24          0.737        1.713
  WS02006230           JUNCTION        0.76          0.697        0.873
  WS02006231           JUNCTION        0.86          0.817        0.713
  WS02006232           JUNCTION        2.37          0.961        0.519
  WS02006234           JUNCTION        1.31          0.951        0.289
  WS02006235           JUNCTION        2.21          1.061        0.229
  WS02006238           JUNCTION        2.29          1.115        0.315
  WS02006239           JUNCTION        2.24          1.198        0.092
  WS02006240           JUNCTION        2.26          1.171        0.219
  WS02006242           JUNCTION        2.42          0.820        0.000
  WS02006243           JUNCTION        2.22          0.770        0.000
  WS02006245           JUNCTION        2.21          0.831        0.019
  WS02006247           JUNCTION        2.25          0.748        0.012
  WS02006248           JUNCTION        2.19          0.380        0.000
  WS02006249           JUNCTION        2.22          0.390        0.000
  WS02006251           JUNCTION        0.92          0.560        0.620
  WS02006252           JUNCTION        2.73          1.100        0.000
  WS02006256           JUNCTION        5.93          2.050        0.000
  YS02001580           JUNCTION        0.53          0.450        0.000
  YS02001583           JUNCTION        0.54          0.500        0.000
  YS02001586           JUNCTION        0.69          0.510        0.000
  YS02001590           JUNCTION        0.76          0.750        0.000
  YS02001593           JUNCTION        0.76          0.840        0.000
  YS02001596           JUNCTION        0.87          1.070        0.000
  YS02001600           JUNCTION        1.01          1.190        0.000
  YS02001601           JUNCTION        1.43          1.440        0.000
  YS02001602           JUNCTION        1.29          1.270        0.000
  YS02001605           JUNCTION        1.22          1.180        0.000
  YS02001607           JUNCTION        0.73          0.645        0.035
  YS02001610           JUNCTION        0.76          0.680        0.000
  YS02001613           JUNCTION        0.73          0.661        0.039
  YS02001616           JUNCTION        0.69          0.610        0.000
  YS02001619           JUNCTION        0.67          0.610        0.000
  YS02001622           JUNCTION        0.67          0.589        0.031
  YS02001625           JUNCTION        0.85          0.780        0.000
  YS02001629           JUNCTION        0.63          0.470        0.000
  YS02001633           JUNCTION        0.87          1.060        0.000
  YS02001641           JUNCTION        0.81          1.009        0.091
  YS02001644           JUNCTION        0.78          0.920        0.000
  YS02001647           JUNCTION        0.58          0.819        0.081
  YS02001649           JUNCTION        0.71          1.050        0.000
  YS02001652           JUNCTION        0.50          1.130        0.000
  YS02001655           JUNCTION        0.33          1.200        0.000
  YS02001658           JUNCTION        0.14          1.300        0.000
  YS02001661           JUNCTION        0.01          0.336        1.054
  YS02001748           JUNCTION        0.04          1.190        0.000
  YS02001751           JUNCTION        0.21          1.200        0.000
  YS02001754           JUNCTION        0.39          1.150        0.000
  YS02001757           JUNCTION        0.77          1.210        0.000
  YS02001759           JUNCTION        0.67          1.192        0.018
  YS02001762           JUNCTION        0.64          1.150        0.000
  YS02001765           JUNCTION        0.59          1.100        0.000
  YS02001767           JUNCTION        0.54          1.030        0.000
  YS02001770           JUNCTION        0.52          0.920        0.000
  YS02001774           JUNCTION        0.62          1.050        0.000
  YS02001779           JUNCTION        0.38          0.680        0.000
  YS02001783           JUNCTION        0.49          0.862        0.738
  YS02001784           JUNCTION        0.47          0.560        0.930
  YS02001786           JUNCTION        0.37          0.239        1.191
  YS02001882           JUNCTION        0.44          0.830        0.000
  YS02001884           JUNCTION        0.45          0.845        0.025
  YS02001887           JUNCTION        0.48          0.874        0.076
  YS02001890           JUNCTION        0.50          0.760        0.000
  YS02001895           JUNCTION        0.43          0.750        0.000
  YS02001898           JUNCTION        0.42          0.740        0.000
  YS02001901           JUNCTION        0.47          0.870        0.000
  YS02001904           JUNCTION        0.46          0.850        0.000
  YS02001907           JUNCTION        0.69          0.950        0.000
  YS02001910           JUNCTION        0.52          1.100        0.000
  YS02001915           JUNCTION        0.44          1.000        0.000
  YS02001918           JUNCTION        0.36          0.810        0.000
  YS02001920           JUNCTION        0.37          1.125        0.015
  YS02001923           JUNCTION        0.01          0.820        0.000
  YS02001926           JUNCTION        0.02          0.900        0.000
  YS02001929           JUNCTION        0.01          0.780        0.000
  YS02006553           JUNCTION        0.70          1.093        0.097
  YS02006556           JUNCTION        0.61          1.170        0.180
  YS02006558           JUNCTION        0.60          1.188        0.212
  YS02006561           JUNCTION        0.32          0.721        0.429
  YS02163301           JUNCTION        0.85          0.961        0.069
  YS02163601           JUNCTION        0.90          1.080        0.000
  YS02164001           JUNCTION        0.82          1.039        0.061
  
  
  *********************
  Node Flooding Summary
  *********************
  
  Flooding refers to all water that overflows a node, whether it ponds or not.
  --------------------------------------------------------------------------
                                                             Total   Maximum
                                 Maximum   Time of Max       Flood    Ponded
                        Hours       Rate    Occurrence      Volume     Depth
  Node                 Flooded       LPS   days hr:min    10^6 ltr    Meters
  --------------------------------------------------------------------------
  WS02006242              0.01     10.68      0  02:10       0.000     0.000
  WS02006243              0.01      1.56      0  03:50       0.000     0.000
  WS02006248              0.01     19.66      0  03:50       0.000     0.000
  WS02006249              0.88     99.89      0  01:54       0.214     0.000
  WS02006252              0.01    245.63      0  00:00       0.000     0.000
  WS02006256              1.23    293.19      0  00:00       0.417     0.000
  YS02001580              0.01     74.66      0  01:46       0.000     0.000
  YS02001583              0.01    125.13      0  01:46       0.000     0.000
  YS02001586              0.41    214.73      0  01:54       0.180     0.000
  YS02001590              0.01     25.38      0  01:45       0.000     0.000
  YS02001593              0.01     36.22      0  01:44       0.000     0.000
  YS02001596              0.01      2.55      0  01:45       0.000     0.000
  YS02001600              0.01      5.55      0  01:46       0.000     0.000
  YS02001601              0.61    907.55      0  01:52       1.046     0.000
  YS02001602              0.51     62.15      0  02:07       0.102     0.000
  YS02001605              0.01      4.15      0  01:46       0.000     0.000
  YS02001610              0.44    436.55      0  01:54       0.397     0.000
  YS02001616              0.01      0.26      0  01:49       0.000     0.000
  YS02001619              0.01      0.05      0  01:49       0.000     0.000
  YS02001625              0.40   1068.32      0  01:53       0.763     0.000
  YS02001629              0.07    226.76      0  01:46       0.020     0.000
  YS02001633              0.01      4.31      0  01:47       0.000     0.000
  YS02001644              0.10    452.49      0  01:50       0.086     0.000
  YS02001649              0.01     20.23      0  01:49       0.000     0.000
  YS02001652              0.01     82.16      0  01:48       0.000     0.000
  YS02001655              0.01    402.12      0  01:48       0.000     0.000
  YS02001658              0.01    484.15      0  01:49       0.000     0.000
  YS02001748              0.01    414.15      0  01:49       0.000     0.000
  YS02001751              0.01    238.27      0  01:49       0.000     0.000
  YS02001754              0.01     31.28      0  01:49       0.000     0.000
  YS02001757              0.01      6.75      0  01:49       0.000     0.000
  YS02001762              0.01     10.62      0  01:49       0.000     0.000
  YS02001765              0.01     17.55      0  01:48       0.000     0.000
  YS02001767              0.01    112.19      0  01:48       0.000     0.000
  YS02001770              0.01    224.50      0  01:48       0.000     0.000
  YS02001774              0.01    171.66      0  01:48       0.000     0.000
  YS02001779              0.07    496.29      0  01:48       0.019     0.000
  YS02001882              0.01    110.38      0  01:47       0.000     0.000
  YS02001890              0.10    123.20      0  01:50       0.027     0.000
  YS02001895              0.01     67.50      0  01:47       0.000     0.000
  YS02001898              0.01    174.27      0  01:47       0.000     0.000
  YS02001901              0.01     10.06      0  01:47       0.000     0.000
  YS02001904              0.01     71.75      0  01:47       0.000     0.000
  YS02001907              0.30   1288.90      0  01:49       0.756     0.000
  YS02001910              0.01     14.90      0  01:47       0.000     0.000
  YS02001915              0.01    210.77      0  01:47       0.000     0.000
  YS02001918              0.01    138.07      0  01:48       0.002     0.000
  YS02001923              0.01    104.39      0  01:48       0.000     0.000
  YS02001926              0.01    708.69      0  01:48       0.005     0.000
  YS02001929              0.01    658.97      0  01:48       0.002     0.000
  YS02163601              0.01      9.92      0  01:47       0.000     0.000
  
  
  **********************
  Storage Volume Summary
  **********************
  
  ------------------------------------------------------------------------------------------------
                         Average    Avg   Evap  Exfil     Maximum    Max    Time of Max    Maximum
                          Volume   Pcnt   Pcnt   Pcnt      Volume   Pcnt     Occurrence    Outflow
  Storage Unit           1000 m³   Full   Loss   Loss     1000 m³   Full    days hr:min        LPS
  ------------------------------------------------------------------------------------------------
  CC-storage               2.421   37.8    0.0    0.0       4.393   68.5       0  02:19    1783.53
  JK-storage               0.149   51.1    0.0    0.0       0.213   72.9       0  01:51    2300.00
  
  
  ***********************
  Outfall Loading Summary
  ***********************
  
  -----------------------------------------------------------
                         Flow       Avg       Max       Total
                         Freq      Flow      Flow      Volume
  Outfall Node           Pcnt       LPS       LPS    10^6 ltr
  -----------------------------------------------------------
  CC-1                  16.60    683.00    683.00       3.135
  CC-2                  15.27    683.00    683.00       2.837
  JK-1                   8.29   1000.00   1000.00       1.714
  JK-2                   2.81   1000.00   1000.00       0.752
  WSC                   99.96    286.41    554.73       6.225
  -----------------------------------------------------------
  System                28.58   3652.41   3914.23      14.662
  
  
  ********************
  Link Flow Summary
  ********************
  
  -----------------------------------------------------------------------------
                                 Maximum  Time of Max   Maximum    Max/    Max/
                                  |Flow|   Occurrence   |Veloc|    Full    Full
  Link                 Type          LPS  days hr:min     m/sec    Flow   Depth
  -----------------------------------------------------------------------------
  1                    CONDUIT    554.73     0  02:54      2.83    0.19    0.30
  WS02003060WS02003069 CONDUIT    552.63     0  02:51      1.64    0.22    0.34
  WS02003066WSF200     CONDUIT    536.09     0  02:50      2.85    0.09    0.22
  WS02003067WS02003066 CONDUIT    536.09     0  02:52      1.21    0.17    0.42
  WS02003069WS02003072 CONDUIT    552.92     0  02:52      1.37    0.27    0.39
  WS02003072WS02003073 CONDUIT    552.91     0  02:53      1.43    1.19    0.37
  WS02004401WS02004402 CONDUIT    536.33     0  02:39      0.98    0.64    0.86
  WS02004402WS02004403 CONDUIT    536.26     0  02:47      0.97    0.77    0.88
  WS02004403WS02004404 CONDUIT    536.13     0  02:39      0.92    0.39    0.93
  WS02004404WS02004405 CONDUIT    536.30     0  02:40      1.08    5.25    0.96
  WS02004405WS02004406 CONDUIT    536.41     0  02:40      0.99    1.06    0.96
  WS02004406WS02004407 CONDUIT    536.21     0  02:48      1.04    0.24    0.63
  WS02004407WS02004409 CONDUIT    536.18     0  02:48      1.56    0.19    0.48
  WS02004409WS02004410 CONDUIT    536.13     0  02:49      1.05    0.69    0.67
  WS02004410WS02004411 CONDUIT    536.10     0  02:49      0.99    0.73    0.69
  WS02004411WS02004412 CONDUIT    536.11     0  02:49      0.94    0.76    0.69
  WS02004412WS02004413 CONDUIT    536.11     0  02:49      0.82    0.36    0.78
  WS02004413WS02003067 CONDUIT    536.08     0  02:52      1.11    0.23    0.59
  WS02006109WS02006110 CONDUIT    569.71     0  02:28      1.13    1.10    1.00
  WS02006110WS02006113 CONDUIT    574.11     0  02:28      1.38    0.52    0.78
  WS02006111WS02006112 CONDUIT    542.61     0  02:30      1.81    0.26    0.67
  WS02006112WS02006115 CONDUIT    560.03     0  02:30      0.86    0.33    0.87
  WS02006113WS02006111 CONDUIT    560.63     0  02:57      2.46    0.67    0.46
  WS02006115WS02006116 CONDUIT    546.55     0  02:30      1.06    0.70    0.76
  WS02006116WS02004401 CONDUIT    538.87     0  02:30      0.98    0.74    0.84
  WS02006228WS02006109 CONDUIT    566.07     0  02:28      1.13    2.47    1.00
  WS02006229WS02006228 CONDUIT    562.21     0  02:28      1.14    1.86    1.00
  WS02006230WS02006229 CONDUIT    560.78     0  02:28      1.46   12.48    1.00
  WS02006231WS02006230 CONDUIT    583.69     0  03:39      1.58    8.85    1.00
  WS02006232WS02006231 CONDUIT    574.67     0  02:55      1.50    1.20    1.00
  WS02006234WS02006232 CONDUIT    573.86     0  02:55      1.49    1.16    1.00
  WS02006235WS02006234 CONDUIT    569.60     0  02:55      1.48    6.01    1.00
  WS02006238WS02006235 CONDUIT    432.86     0  03:50      1.49    0.97    1.00
  WS02006239WS02006238 CONDUIT    423.64     0  02:25      1.10    1.36    1.00
  WS02006240WS02006239 CONDUIT    422.87     0  03:02      1.24    1.33    1.00
  WS02006242WS02006240 CONDUIT    420.03     0  02:25      1.13    1.67    1.00
  WS02006243WS02006242 CONDUIT    420.54     0  03:02      1.40    0.90    1.00
  WS02006245WS02006243 CONDUIT    419.59     0  03:02      1.45    1.24    1.00
  WS02006247WS02006245 CONDUIT    419.32     0  02:25      1.43    3.32    1.00
  WS02006248WS02006247 CONDUIT    418.82     0  03:50      1.44    0.91    1.00
  WS02006249WS02006248 CONDUIT    418.30     0  02:25      1.36    2.29    1.00
  WS02006251WS02006249 CONDUIT    459.02     0  00:00      2.15    1.32    1.00
  WS02006252WS02006251 CONDUIT    408.38     0  01:54     24.61    1.50    1.00
  WS02006256WS02006235 CONDUIT    288.91     0  00:00      4.23    3.06    1.00
  WSF200WS02003060     CONDUIT    536.12     0  02:50      2.06    0.12    0.28
  YS02001580YS02001583 CONDUIT    137.58     0  01:46      0.82    0.53    1.00
  YS02001583YS02001586 CONDUIT    185.82     0  01:46      0.84    0.28    1.00
  YS02001586YS02001590 CONDUIT    318.00     0  02:05      1.27    0.56    1.00
  YS02001590YS02001593 CONDUIT    318.03     0  02:05      1.12    2.00    1.00
  YS02001593YS02001596 CONDUIT    318.02     0  02:03      1.73    0.50    1.00
  YS02001596YS02001600 CONDUIT    318.01     0  01:50      1.21    0.62    1.00
  YS02001600YS02001601 CONDUIT    317.85     0  02:03      1.12    0.55    1.00
  YS02001601YS02001602 CONDUIT    557.17     0  01:45      1.97    2.01    1.00
  YS02001602YS02001605 CONDUIT    557.68     0  01:45      1.97   11.80    1.00
  YS02001605YS02001607 CONDUIT    558.47     0  01:45      1.98    3.06    1.00
  YS02001607YS02001610 CONDUIT    541.67     0  01:45      0.69    0.52    1.00
  YS02001610YS02001613 CONDUIT    547.82     0  01:45      0.70    0.63    1.00
  YS02001613YS02001616 CONDUIT    552.77     0  01:45      0.71    0.47    1.00
  YS02001616YS02001619 CONDUIT    527.13     0  01:46      0.67    0.92    1.00
  YS02001619YS02001622 CONDUIT    937.76     0  01:46      1.24    1.38    1.00
  YS02001622YS02001625 CONDUIT    930.38     0  01:46      1.18    0.50    1.00
  YS02001625YS02001629 CONDUIT    931.93     0  01:46      1.19    0.44    1.00
  YS02001629YS02163301 CONDUIT    923.57     0  01:47      1.18    1.14    1.00
  YS02001633YS02163601 CONDUIT   1437.55     0  01:47      1.83    1.51    1.00
  YS02001641YS02001644 CONDUIT   1436.58     0  01:47      1.83    4.64    1.00
  YS02001644YS02001647 CONDUIT   1913.90     0  01:47      2.45    1.12    1.00
  YS02001647YS02001649 CONDUIT   1890.81     0  01:47      2.41    1.00    1.00
  YS02001649YS02001757 CONDUIT   2165.88     0  01:48      2.76    1.31    1.00
  YS02001652YS02001649 CONDUIT    796.85     0  01:51      1.01    0.39    1.00
  YS02001655YS02001652 CONDUIT    797.71     0  01:51      1.43    0.39    1.00
  YS02001658YS02001655 CONDUIT    797.41     0  01:51      1.99    0.34    1.00
  YS02001661YS02001658 CONDUIT    796.12     0  01:51      2.43    0.31    1.00
  YS02001664YS02001661 CONDUIT    785.98     0  01:50      2.45    0.25    0.81
  YS02001745YS02001748 CONDUIT    710.63     0  01:49      2.33    0.27    0.94
  YS02001748YS02001751 CONDUIT    546.28     0  01:50      1.83    0.28    1.00
  YS02001751YS02001754 CONDUIT    546.42     0  01:50      1.53    0.26    1.00
  YS02001754YS02001757 CONDUIT    546.93     0  01:50      0.70    0.22    1.00
  YS02001757CaochengTiaoxuchi CONDUIT   3436.08     0  01:50      4.37    1.49    1.00
  YS02001759YS02001757 CONDUIT   1371.33     0  01:49      1.75    0.97    1.00
  YS02001762YS02001759 CONDUIT    792.56     0  01:49      1.01    0.91    1.00
  YS02001765YS02001762 CONDUIT    791.45     0  01:49      1.01    0.74    1.00
  YS02001767YS02001765 CONDUIT    792.55     0  01:49      1.01    1.00    1.00
  YS02001770YS02001767 CONDUIT    794.44     0  01:49      1.01    3.15    1.00
  YS02001774YS02001770 CONDUIT    525.28     0  01:48      0.67    0.34    1.00
  YS02001779YS02001774 CONDUIT    527.34     0  01:48      0.68    0.27    1.00
  YS02001783YS02001784 CONDUIT   1160.10     0  01:49      2.31    1.60    1.00
  YS02001784YS02001785 CONDUIT   1161.34     0  01:49      2.31    2.70    1.00
  YS02001786YS02001788 CONDUIT   1161.26     0  01:49      2.48    2.24    0.89
  YS02001788YS02001790 CONDUIT   1169.59     0  01:48      2.71    0.86    0.84
  YS02001790YS02001791 CONDUIT   1285.25     0  01:54      3.43    1.40    0.70
  YS02001791YS02001793 CONDUIT   1239.39     0  01:50      6.70    0.53    0.43
  YS02001793JiankangQianchi CONDUIT   1225.28     0  01:55      2.45    0.10    0.64
  YS02001882YS02001884 CONDUIT    116.49     0  01:47      0.15    0.13    1.00
  YS02001884YS02001887 CONDUIT    128.68     0  01:46      0.16    0.17    1.00
  YS02001887YS02001890 CONDUIT    643.91     0  01:49      0.82    1.10    1.00
  YS02001890YS02001895 CONDUIT    541.34     0  01:47      0.69    0.25    1.00
  YS02001895YS02001898 CONDUIT    541.51     0  01:47      0.69    0.94    1.00
  YS02001898YS02001901 CONDUIT    542.08     0  01:47      0.69    0.35    1.00
  YS02001901YS02001904 CONDUIT    542.13     0  01:47      0.69    0.84    1.00
  YS02001904YS02001907 CONDUIT    541.87     0  01:47      0.69    0.19    1.00
  YS02001907YS02006553 CONDUIT    793.96     0  02:07      0.88    0.93    1.00
  YS02001910YS02001907 CONDUIT   1108.31     0  01:49      1.41    0.62    1.00
  YS02001915YS02001910 CONDUIT   1108.35     0  01:49      1.41    0.55    1.00
  YS02001918YS02001915 CONDUIT    584.25     0  01:47      0.74    0.32    1.00
  YS02001920YS02001918 CONDUIT    617.33     0  01:47      0.79    0.60    1.00
  YS02001923YS02001920 CONDUIT    565.27     0  01:48      0.72    0.25    1.00
  YS02001926YS02001923 CONDUIT    778.75     0  01:48      1.21    1.11    1.00
  YS02001929YS02001926 CONDUIT    545.82     0  01:48      1.20    0.26    1.00
  YS02006553YS02006556 CONDUIT    793.61     0  02:07      1.01    0.68    1.00
  YS02006556YS02006558 CONDUIT    794.88     0  02:07      1.01    0.63    1.00
  YS02006558YS02006561 CONDUIT   1173.90     0  01:48      4.15    2.59    1.00
  YS02006561YS02001783 CONDUIT   1160.16     0  01:49      2.31    0.60    1.00
  YS02163301YS02001633 CONDUIT    923.57     0  01:47      1.18    0.87    1.00
  YS02163601YS02164001 CONDUIT   1437.39     0  01:47      1.83    1.27    1.00
  YS02164001YS02001641 CONDUIT   1436.90     0  01:47      1.83    1.96    1.00
  CC-R1                PUMP       683.00     0  00:00              1.00
  CC-R2                PUMP       683.00     0  00:00              1.00
  CC-S1                PUMP       200.00     0  00:00              1.00
  CC-S2                PUMP       200.00     0  00:00              1.00
  JK-R1                PUMP      1000.00     0  00:00              1.00
  JK-R2                PUMP      1000.00     0  00:00              1.00
  JK-S                 PUMP       300.00     0  00:00              1.00
  
  
  ***************************
  Flow Classification Summary
  ***************************
  
  -------------------------------------------------------------------------------------
                      Adjusted    ---------- Fraction of Time in Flow Class ---------- 
                       /Actual         Up    Down  Sub   Sup   Up    Down  Norm  Inlet 
  Conduit               Length    Dry  Dry   Dry   Crit  Crit  Crit  Crit  Ltd   Ctrl  
  -------------------------------------------------------------------------------------
  1                       1.00   0.00  0.00  0.00  0.00  1.00  0.00  0.00  0.46  0.00
  WS02003060WS02003069    1.00   0.00  0.00  0.00  0.98  0.02  0.00  0.00  0.64  0.00
  WS02003066WSF200        1.00   0.13  0.00  0.00  0.00  0.87  0.00  0.00  0.76  0.00
  WS02003067WS02003066    1.00   0.10  0.02  0.00  0.88  0.00  0.00  0.00  0.00  0.00
  WS02003069WS02003072    1.00   0.00  0.00  0.00  0.99  0.01  0.00  0.00  0.69  0.00
  WS02003072WS02003073    1.00   0.00  0.00  0.00  0.00  0.00  0.00  1.00  0.00  0.00
  WS02004401WS02004402    1.00   0.02  0.00  0.00  0.98  0.00  0.00  0.00  0.00  0.00
  WS02004402WS02004403    1.00   0.02  0.00  0.00  0.97  0.00  0.00  0.00  0.00  0.00
  WS02004403WS02004404    1.00   0.00  0.03  0.00  0.97  0.00  0.00  0.00  0.00  0.00
  WS02004404WS02004405    1.00   0.00  0.00  0.00  1.00  0.00  0.00  0.00  0.00  0.00
  WS02004405WS02004406    1.00   0.00  0.00  0.00  1.00  0.00  0.00  0.00  0.00  0.00
  WS02004406WS02004407    1.00   0.00  0.05  0.00  0.95  0.00  0.00  0.00  0.00  0.00
  WS02004407WS02004409    1.00   0.05  0.00  0.00  0.94  0.01  0.00  0.00  0.94  0.00
  WS02004409WS02004410    1.00   0.05  0.00  0.00  0.95  0.00  0.00  0.00  0.03  0.00
  WS02004410WS02004411    1.00   0.05  0.00  0.00  0.95  0.00  0.00  0.00  0.01  0.00
  WS02004411WS02004412    1.00   0.05  0.00  0.00  0.95  0.00  0.00  0.00  0.00  0.00
  WS02004412WS02004413    1.00   0.05  0.00  0.00  0.94  0.00  0.00  0.00  0.01  0.00
  WS02004413WS02003067    1.00   0.06  0.04  0.00  0.00  0.00  0.90  0.00  0.00  0.00
  WS02006109WS02006110    1.00   0.00  0.01  0.00  0.98  0.00  0.01  0.00  0.00  0.00
  WS02006110WS02006113    1.00   0.01  0.01  0.00  0.98  0.00  0.00  0.00  0.00  0.00
  WS02006111WS02006112    1.00   0.02  0.00  0.00  0.98  0.00  0.00  0.00  0.98  0.00
  WS02006112WS02006115    1.00   0.02  0.00  0.00  0.97  0.00  0.00  0.00  0.00  0.00
  WS02006113WS02006111    1.00   0.02  0.00  0.00  0.00  0.98  0.00  0.00  0.15  0.00
  WS02006115WS02006116    1.00   0.02  0.00  0.00  0.97  0.00  0.00  0.01  0.00  0.00
  WS02006116WS02004401    1.00   0.02  0.00  0.00  0.98  0.00  0.00  0.00  0.00  0.00
  WS02006228WS02006109    1.00   0.00  0.00  0.00  1.00  0.00  0.00  0.00  0.00  0.00
  WS02006229WS02006228    1.00   0.00  0.00  0.00  0.99  0.00  0.00  0.01  0.00  0.00
  WS02006230WS02006229    1.00   0.00  0.00  0.00  0.99  0.00  0.00  0.01  0.00  0.00
  WS02006231WS02006230    1.00   0.00  0.00  0.00  0.33  0.00  0.67  0.00  0.00  0.00
  WS02006232WS02006231    1.00   0.00  0.00  0.00  0.99  0.00  0.01  0.00  0.00  0.00
  WS02006234WS02006232    1.00   0.00  0.00  0.00  1.00  0.00  0.00  0.00  0.17  0.00
  WS02006235WS02006234    1.00   0.00  0.00  0.00  0.77  0.00  0.23  0.00  0.00  0.00
  WS02006238WS02006235    1.00   0.00  0.00  0.00  1.00  0.00  0.00  0.00  0.00  0.00
  WS02006239WS02006238    1.00   0.00  0.00  0.00  1.00  0.00  0.00  0.00  0.26  0.00
  WS02006240WS02006239    1.00   0.00  0.00  0.00  0.65  0.00  0.00  0.35  0.02  0.00
  WS02006242WS02006240    1.00   0.00  0.00  0.00  0.99  0.00  0.01  0.00  0.00  0.00
  WS02006243WS02006242    1.00   0.00  0.00  0.00  0.99  0.00  0.00  0.01  0.45  0.00
  WS02006245WS02006243    1.00   0.00  0.00  0.00  0.75  0.00  0.00  0.25  0.00  0.00
  WS02006247WS02006245    1.00   0.00  0.00  0.00  0.98  0.00  0.00  0.02  0.00  0.00
  WS02006248WS02006247    1.00   0.00  0.00  0.00  0.99  0.00  0.00  0.01  0.26  0.00
  WS02006249WS02006248    1.00   0.00  0.00  0.00  0.55  0.00  0.45  0.00  0.00  0.00
  WS02006251WS02006249    1.00   0.00  0.00  0.00  0.99  0.01  0.00  0.00  0.47  0.00
  WS02006252WS02006251    1.00   0.00  0.47  0.00  0.11  0.00  0.42  0.00  0.00  0.00
  WS02006256WS02006235    1.00   0.00  0.00  0.00  0.99  0.01  0.00  0.00  0.00  0.00
  WSF200WS02003060        1.00   0.00  0.13  0.00  0.28  0.59  0.00  0.00  0.39  0.00
  YS02001580YS02001583    1.00   0.22  0.60  0.00  0.19  0.00  0.00  0.00  0.69  0.00
  YS02001583YS02001586    1.00   0.43  0.33  0.00  0.24  0.00  0.00  0.00  0.69  0.00
  YS02001586YS02001590    1.00   0.13  0.00  0.00  0.41  0.04  0.00  0.42  0.35  0.00
  YS02001590YS02001593    1.00   0.13  0.01  0.00  0.11  0.00  0.76  0.00  0.00  0.00
  YS02001593YS02001596    1.00   0.13  0.00  0.00  0.13  0.01  0.00  0.73  0.02  0.00
  YS02001596YS02001600    1.00   0.14  0.00  0.00  0.20  0.01  0.00  0.66  0.05  0.00
  YS02001600YS02001601    1.00   0.13  0.01  0.00  0.86  0.00  0.00  0.00  0.61  0.00
  YS02001601YS02001602    1.00   0.13  0.01  0.00  0.86  0.00  0.00  0.00  0.00  0.00
  YS02001602YS02001605    1.00   0.14  0.00  0.00  0.86  0.00  0.00  0.00  0.00  0.00
  YS02001605YS02001607    1.00   0.14  0.00  0.00  0.86  0.00  0.00  0.00  0.00  0.00
  YS02001607YS02001610    1.00   0.13  0.01  0.00  0.86  0.00  0.00  0.00  0.01  0.00
  YS02001610YS02001613    1.00   0.13  0.00  0.00  0.87  0.00  0.00  0.00  0.00  0.00
  YS02001613YS02001616    1.00   0.13  0.00  0.00  0.87  0.00  0.00  0.00  0.00  0.00
  YS02001616YS02001619    1.00   0.13  0.00  0.00  0.87  0.00  0.00  0.00  0.00  0.00
  YS02001619YS02001622    1.00   0.13  0.00  0.00  0.87  0.00  0.00  0.00  0.30  0.00
  YS02001622YS02001625    1.00   0.13  0.00  0.00  0.87  0.00  0.00  0.00  0.04  0.00
  YS02001625YS02001629    1.00   0.13  0.05  0.00  0.15  0.00  0.67  0.00  0.00  0.00
  YS02001629YS02163301    1.00   0.15  0.01  0.00  0.84  0.00  0.00  0.00  0.00  0.00
  YS02001633YS02163601    1.00   0.00  0.01  0.00  0.99  0.00  0.00  0.00  0.15  0.00
  YS02001641YS02001644    1.00   0.00  0.01  0.00  0.99  0.00  0.00  0.00  0.00  0.00
  YS02001644YS02001647    1.00   0.00  0.17  0.00  0.83  0.00  0.00  0.00  0.00  0.00
  YS02001647YS02001649    1.00   0.00  0.17  0.00  0.58  0.24  0.00  0.00  0.56  0.00
  YS02001649YS02001757    1.00   0.00  0.00  0.00  0.88  0.12  0.00  0.00  0.42  0.00
  YS02001652YS02001649    1.00   0.00  0.00  0.00  0.97  0.03  0.00  0.00  0.72  0.00
  YS02001655YS02001652    1.00   0.00  0.00  0.00  0.19  0.01  0.00  0.79  0.07  0.00
  YS02001658YS02001655    1.00   0.00  0.14  0.00  0.65  0.21  0.00  0.00  0.69  0.00
  YS02001661YS02001658    1.00   0.14  0.00  0.00  0.49  0.37  0.00  0.00  0.72  0.00
  YS02001664YS02001661    1.00   0.13  0.00  0.00  0.77  0.11  0.00  0.00  0.86  0.00
  YS02001745YS02001748    1.00   0.00  0.00  0.00  0.09  0.01  0.00  0.90  0.05  0.00
  YS02001748YS02001751    1.00   0.00  0.00  0.00  0.82  0.18  0.00  0.00  0.78  0.00
  YS02001751YS02001754    1.00   0.00  0.00  0.00  0.14  0.00  0.00  0.85  0.02  0.00
  YS02001754YS02001757    1.00   0.00  0.00  0.00  1.00  0.00  0.00  0.00  0.79  0.00
  YS02001757CaochengTiaoxuchi    1.00   0.00  0.00  0.00  0.98  0.02  0.00  0.00  0.62  0.00
  YS02001759YS02001757    1.00   0.00  0.00  0.00  1.00  0.00  0.00  0.00  0.52  0.00
  YS02001762YS02001759    1.00   0.00  0.00  0.00  1.00  0.00  0.00  0.00  0.05  0.00
  YS02001765YS02001762    1.00   0.00  0.00  0.00  1.00  0.00  0.00  0.00  0.66  0.00
  YS02001767YS02001765    1.00   0.00  0.00  0.00  1.00  0.00  0.00  0.00  0.01  0.00
  YS02001770YS02001767    1.00   0.00  0.00  0.00  1.00  0.00  0.00  0.00  0.00  0.00
  YS02001774YS02001770    1.00   0.00  0.13  0.00  0.70  0.00  0.17  0.00  0.03  0.00
  YS02001779YS02001774    1.00   0.00  0.00  0.00  1.00  0.00  0.00  0.00  0.78  0.00
  YS02001783YS02001784    1.00   0.00  0.18  0.00  0.82  0.00  0.00  0.00  0.56  0.00
  YS02001784YS02001785    1.00   0.00  0.00  0.00  1.00  0.00  0.00  0.00  0.17  0.00
  YS02001786YS02001788    1.00   0.00  0.00  0.00  0.79  0.21  0.00  0.00  0.00  0.00
  YS02001788YS02001790    1.00   0.00  0.00  0.00  0.21  0.79  0.00  0.00  0.81  0.00
  YS02001790YS02001791    1.00   0.00  0.00  0.00  0.01  0.99  0.00  0.00  0.16  0.00
  YS02001791YS02001793    1.00   0.00  0.00  0.00  0.00  1.00  0.00  0.00  0.01  0.00
  YS02001793JiankangQianchi    1.00   0.00  0.00  0.00  0.98  0.02  0.00  0.00  0.97  0.00
  YS02001882YS02001884    1.00   0.15  0.01  0.00  0.84  0.00  0.00  0.00  0.00  0.00
  YS02001884YS02001887    1.00   0.06  0.05  0.00  0.89  0.00  0.00  0.00  0.00  0.00
  YS02001887YS02001890    1.00   0.00  0.00  0.00  0.97  0.00  0.03  0.00  0.00  0.00
  YS02001890YS02001895    1.00   0.00  0.16  0.00  0.84  0.00  0.00  0.00  0.00  0.00
  YS02001895YS02001898    1.00   0.16  0.00  0.00  0.82  0.00  0.02  0.00  0.00  0.00
  YS02001898YS02001901    1.00   0.17  0.00  0.00  0.83  0.00  0.00  0.00  0.01  0.00
  YS02001901YS02001904    1.00   0.17  0.00  0.00  0.83  0.00  0.00  0.00  0.00  0.00
  YS02001904YS02001907    1.00   0.00  0.16  0.00  0.83  0.00  0.00  0.00  0.00  0.00
  YS02001907YS02006553    1.00   0.00  0.02  0.00  0.98  0.00  0.00  0.00  0.00  0.00
  YS02001910YS02001907    1.00   0.00  0.00  0.00  0.97  0.00  0.00  0.03  0.12  0.00
  YS02001915YS02001910    1.00   0.00  0.00  0.00  0.97  0.03  0.00  0.00  0.16  0.00
  YS02001918YS02001915    1.00   0.00  0.01  0.00  0.98  0.02  0.00  0.00  0.76  0.00
  YS02001920YS02001918    1.00   0.00  0.01  0.00  0.99  0.00  0.00  0.00  0.00  0.00
  YS02001923YS02001920    1.00   0.00  0.00  0.00  1.00  0.00  0.00  0.00  0.93  0.00
  YS02001926YS02001923    1.00   0.00  0.07  0.00  0.06  0.00  0.87  0.00  0.00  0.00
  YS02001929YS02001926    1.00   0.00  0.13  0.00  0.87  0.00  0.00  0.00  0.83  0.00
  YS02006553YS02006556    1.00   0.01  0.00  0.00  0.99  0.00  0.00  0.00  0.03  0.00
  YS02006556YS02006558    1.00   0.00  0.00  0.00  1.00  0.00  0.00  0.00  0.00  0.00
  YS02006558YS02006561    1.00   0.18  0.00  0.00  0.05  0.77  0.00  0.00  0.19  0.00
  YS02006561YS02001783    1.00   0.18  0.00  0.00  0.08  0.74  0.00  0.00  0.70  0.00
  YS02163301YS02001633    1.00   0.00  0.15  0.00  0.85  0.00  0.00  0.00  0.00  0.00
  YS02163601YS02164001    1.00   0.00  0.08  0.00  0.92  0.00  0.00  0.00  0.00  0.00
  YS02164001YS02001641    1.00   0.01  0.07  0.00  0.92  0.00  0.00  0.00  0.06  0.00
  
  
  *************************
  Conduit Surcharge Summary
  *************************
  
  ----------------------------------------------------------------------------
                                                           Hours        Hours 
                         --------- Hours Full --------   Above Full   Capacity
  Conduit                Both Ends  Upstream  Dnstream   Normal Flow   Limited
  ----------------------------------------------------------------------------
  WS02003072WS02003073        0.01      0.01      0.01      1.15         0.01
  WS02004404WS02004405        0.01      0.01      0.01      4.06         0.01
  WS02004405WS02004406        0.01      0.01      0.01      0.64         0.01
  WS02006109WS02006110        0.73      0.73      2.37      0.83         0.01
  WS02006110WS02006113        0.01      0.01      2.28      0.01         0.01
  WS02006111WS02006112        0.01      0.01      2.89      0.01         0.01
  WS02006112WS02006115        0.01      0.01      0.70      0.01         0.01
  WS02006228WS02006109        2.23      2.36      2.23      3.21         2.22
  WS02006229WS02006228        2.22      2.24      2.22      2.76         2.21
  WS02006230WS02006229        2.52      2.70      2.52      4.59         2.52
  WS02006231WS02006230        0.76      0.76      0.91      4.35         0.01
  WS02006232WS02006231        0.85      0.85      2.36      0.93         0.01
  WS02006234WS02006232        2.16      2.16      2.36      0.91         0.91
  WS02006235WS02006234        1.30      1.31      2.21      4.21         0.02
  WS02006238WS02006235        2.24      2.24      2.38      0.01         0.01
  WS02006239WS02006238        2.29      2.36      2.29      2.57         2.05
  WS02006240WS02006239        2.24      2.28      2.24      2.55         1.95
  WS02006242WS02006240        2.26      2.26      2.51      2.81         0.01
  WS02006243WS02006242        2.24      2.24      2.42      0.01         0.04
  WS02006245WS02006243        2.21      2.23      2.22      1.82         1.47
  WS02006247WS02006245        2.21      2.27      2.21      3.92         2.20
  WS02006248WS02006247        2.21      2.21      2.25      0.01         0.04
  WS02006249WS02006248        2.18      2.19      2.22      3.91         0.01
  WS02006251WS02006249        2.22      2.23      2.22      2.66         2.15
  WS02006252WS02006251        2.72      2.72      2.73      2.73         0.01
  WS02006256WS02006235        4.22      4.26      5.90      1.23         0.01
  YS02001580YS02001583        0.53      0.53      0.59      0.01         0.01
  YS02001583YS02001586        0.54      0.54      0.69      0.01         0.01
  YS02001586YS02001590        0.69      0.69      0.76      0.01         0.01
  YS02001590YS02001593        0.76      0.76      0.78      0.81         0.01
  YS02001593YS02001596        0.77      0.77      0.87      0.01         0.01
  YS02001596YS02001600        0.91      0.91      1.01      0.01         0.01
  YS02001600YS02001601        1.08      1.08      1.43      0.01         0.01
  YS02001601YS02001602        1.29      1.29      1.47      1.03         0.01
  YS02001602YS02001605        1.22      1.22      1.29      2.18         0.01
  YS02001605YS02001607        1.17      1.22      1.17      1.38         1.17
  YS02001607YS02001610        0.73      0.73      0.76      0.01         0.01
  YS02001610YS02001613        0.73      0.73      0.76      0.01         0.01
  YS02001613YS02001616        0.69      0.69      0.73      0.01         0.01
  YS02001616YS02001619        0.67      0.67      0.69      0.01         0.01
  YS02001619YS02001622        0.67      0.67      0.67      0.77         0.64
  YS02001622YS02001625        0.67      0.67      0.85      0.01         0.01
  YS02001625YS02001629        0.63      0.63      0.85      0.01         0.01
  YS02001629YS02163301        0.84      0.84      0.85      0.14         0.18
  YS02001633YS02163601        0.87      0.87      0.90      0.38         0.38
  YS02001641YS02001644        0.78      0.81      0.78      1.50         0.77
  YS02001644YS02001647        0.58      0.58      0.78      0.04         0.01
  YS02001647YS02001649        0.58      0.58      0.71      0.01         0.01
  YS02001649YS02001757        0.70      0.71      0.77      0.06         0.09
  YS02001652YS02001649        0.52      0.52      0.71      0.01         0.01
  YS02001655YS02001652        0.32      0.32      0.50      0.01         0.01
  YS02001658YS02001655        0.14      0.14      0.32      0.01         0.01
  YS02001661YS02001658        0.01      0.01      0.14      0.01         0.01
  YS02001664YS02001661        0.01      0.01      0.02      0.01         0.01
  YS02001745YS02001748        0.01      0.01      0.04      0.01         0.01
  YS02001748YS02001751        0.11      0.11      0.21      0.01         0.01
  YS02001751YS02001754        0.21      0.21      0.39      0.01         0.01
  YS02001754YS02001757        0.44      0.44      0.77      0.01         0.01
  YS02001757CaochengTiaoxuchi        0.73      0.77      2.08      0.33         0.27
  YS02001759YS02001757        0.67      0.67      0.77      0.01         0.01
  YS02001762YS02001759        0.64      0.64      0.67      0.01         0.02
  YS02001765YS02001762        0.59      0.59      0.64      0.01         0.01
  YS02001767YS02001765        0.54      0.54      0.59      0.01         0.03
  YS02001770YS02001767        0.54      0.54      0.54      0.49         0.39
  YS02001774YS02001770        0.52      0.52      0.62      0.01         0.01
  YS02001779YS02001774        0.38      0.38      0.62      0.01         0.01
  YS02001783YS02001784        0.47      0.49      0.47      0.63         0.47
  YS02001784YS02001785        0.37      0.47      0.37      0.86         0.37
  YS02001786YS02001788        0.01      0.37      0.01      0.72         0.01
  YS02001790YS02001791        0.01      0.01      0.01      0.46         0.01
  YS02001793JiankangQianchi        0.01      0.01      7.54      0.01         0.01
  YS02001882YS02001884        0.44      0.44      0.45      0.01         0.01
  YS02001884YS02001887        0.47      0.47      0.48      0.01         0.01
  YS02001887YS02001890        0.50      0.50      0.51      0.06         0.01
  YS02001890YS02001895        0.43      0.43      0.52      0.01         0.01
  YS02001895YS02001898        0.42      0.42      0.43      0.01         0.01
  YS02001898YS02001901        0.43      0.43      0.47      0.01         0.01
  YS02001901YS02001904        0.46      0.46      0.47      0.01         0.01
  YS02001904YS02001907        0.46      0.46      0.70      0.01         0.01
  YS02001907YS02006553        0.87      0.87      0.94      0.01         0.01
  YS02001910YS02001907        0.52      0.52      0.69      0.01         0.01
  YS02001915YS02001910        0.44      0.44      0.52      0.01         0.01
  YS02001918YS02001915        0.36      0.36      0.44      0.01         0.01
  YS02001920YS02001918        0.36      0.36      0.37      0.01         0.01
  YS02001923YS02001920        0.31      0.31      0.37      0.01         0.01
  YS02001926YS02001923        0.01      0.01      0.02      0.01         0.01
  YS02001929YS02001926        0.01      0.01      0.02      0.01         0.01
  YS02006553YS02006556        0.61      0.61      0.70      0.01         0.01
  YS02006556YS02006558        0.65      0.65      0.72      0.01         0.01
  YS02006558YS02006561        0.39      0.60      0.39      0.81         0.39
  YS02006561YS02001783        0.32      0.32      0.49      0.01         0.01
  YS02163301YS02001633        0.85      0.85      0.89      0.01         0.01
  YS02163601YS02164001        0.82      0.82      0.90      0.04         0.01
  YS02164001YS02001641        0.81      0.82      0.81      0.73         0.65
  
  
  ***************
  Pumping Summary
  ***************
  
  ---------------------------------------------------------------------------------------------------------
                                                  Min       Avg       Max     Total     Power    % Time Off
                        Percent   Number of      Flow      Flow      Flow    Volume     Usage    Pump Curve
  Pump                 Utilized   Start-Ups       LPS       LPS       LPS  10^6 ltr     Kw-hr    Low   High
  ---------------------------------------------------------------------------------------------------------
  CC-R1                   15.94           4      0.00    683.00    683.00     3.136     58.41    0.0   12.0
  CC-R2                   14.44           4      0.00    683.00    683.00     2.840     53.00    0.0   13.4
  CC-S1                   49.54           9      0.00    200.00    200.00     2.853     17.25    0.0    0.0
  CC-S2                   34.17          10      0.00    200.00    200.00     1.968     11.80    0.0    0.0
  JK-R1                    5.95          11      0.00   1000.00   1000.00     1.713     18.74    0.0    0.0
  JK-R2                    2.60          10      0.00   1000.00   1000.00     0.749      5.98    0.0    0.0
  JK-S                    15.35          15      0.00    300.00    300.00     1.326     21.02    0.0    0.0
  

  Analysis begun on:  Mon Apr 14 20:59:18 2025
  Analysis ended on:  Mon Apr 14 20:59:20 2025
  Total elapsed time: 00:00:02