
  EPA STORM WATER MANAGEMENT MODEL - VERSION 5.2 (Build 5.2.4)
  PYSWMM TOOLKIT API - VERSION v1.0 (2023-11-27)
  ------------------------------------------------------------

  WARNING 04: minimum elevation drop used for Conduit WS02004404WS02004405
  WARNING 03: negative offset ignored for Link YS02001904YS02001907
  
  ****************
  Analysis Options
  ****************
  Flow Units ............... LPS
  Process Models:
    Rainfall/Runoff ........ YES
    RDII ................... NO
    Snowmelt ............... NO
    Groundwater ............ NO
    Flow Routing ........... YES
    Ponding Allowed ........ NO
    Water Quality .......... NO
  Infiltration Method ...... HORTON
  Flow Routing Method ...... DYNWAVE
  Surcharge Method ......... EXTRAN
  Starting Date ............ 08/28/2015 08:00:00
  Ending Date .............. 08/28/2015 16:00:00
  Antecedent Dry Days ...... 8.0
  Report Time Step ......... 00:01:00
  Wet Time Step ............ 00:01:00
  Dry Time Step ............ 00:01:00
  Routing Time Step ........ 30.00 sec
  Variable Time Step ....... YES
  Maximum Trials ........... 8
  Number of Threads ........ 4
  Head Tolerance ........... 0.001500 m
  
  
  **************************        Volume         Depth
  Runoff Quantity Continuity     hectare-m            mm
  **************************     ---------       -------
  Total Precipitation ......         3.590       108.232
  Evaporation Loss .........         0.000         0.000
  Infiltration Loss ........         0.107         3.237
  Surface Runoff ...........         3.450       104.021
  Final Storage ............         0.033         0.998
  Continuity Error (%) .....        -0.021
  
  
  **************************        Volume        Volume
  Flow Routing Continuity        hectare-m      10^6 ltr
  **************************     ---------     ---------
  Dry Weather Inflow .......         0.025         0.251
  Wet Weather Inflow .......         3.450        34.501
  Groundwater Inflow .......         0.000         0.000
  RDII Inflow ..............         0.000         0.000
  External Inflow ..........         0.083         0.834
  External Outflow .........         1.956        19.561
  Flooding Loss ............         1.651        16.514
  Evaporation Loss .........         0.000         0.000
  Exfiltration Loss ........         0.000         0.000
  Initial Stored Volume ....         0.243         2.431
  Final Stored Volume ......         0.199         1.989
  Continuity Error (%) .....        -0.126
  
  
  *************************
  Highest Continuity Errors
  *************************
  Node YS02001884 (4.89%)
  Node YS02001583 (-2.34%)
  
  
  ***************************
  Time-Step Critical Elements
  ***************************
  Link WS02006252WS02006251 (41.48%)
  Link WS02006238WS02006235 (15.45%)
  Link WS02004404WS02004405 (12.23%)
  Link YS02001791YS02001793 (9.83%)
  Link WS02006235WS02006234 (7.37%)
  
  
  ********************************
  Highest Flow Instability Indexes
  ********************************
  Link WS02006113WS02006111 (54)
  Link WS02006111WS02006112 (29)
  Link WS02004404WS02004405 (22)
  Link WS02004403WS02004404 (20)
  Link WS02004405WS02004406 (18)
  
  
  *********************************
  Most Frequent Nonconverging Nodes
  *********************************
  Node CC-1 (12.00%)
  Node CC-2 (12.00%)
  Node JK-1 (12.00%)
  Node JK-2 (12.00%)
  Node WSC (12.00%)
  
  
  *************************
  Routing Time Step Summary
  *************************
  Minimum Time Step           :     0.00 sec
  Average Time Step           :     1.86 sec
  Maximum Time Step           :     7.04 sec
  % of Time in Steady State   :     0.00
  Average Iterations per Step :     3.10
  % of Steps Not Converging   :    12.00
  Time Step Frequencies       :
     30.000 - 13.228 sec      :     0.00 %
     13.228 -  5.833 sec      :     6.56 %
      5.833 -  2.572 sec      :    17.42 %
      2.572 -  1.134 sec      :    26.18 %
      1.134 -  0.500 sec      :    49.83 %
  
  
  ***************************
  Subcatchment Runoff Summary
  ***************************
  
  ------------------------------------------------------------------------------------------------------------------------------
                            Total      Total      Total      Total     Imperv       Perv      Total       Total     Peak  Runoff
                           Precip      Runon       Evap      Infil     Runoff     Runoff     Runoff      Runoff   Runoff   Coeff
  Subcatchment                 mm         mm         mm         mm         mm         mm         mm    10^6 ltr      LPS
  ------------------------------------------------------------------------------------------------------------------------------
  sub60                    108.23       0.00       0.00       1.91      94.05      11.09     105.14        1.38   949.12   0.971
  sub61                    108.23       0.00       0.00       2.77      88.71      15.63     104.35        1.91  1321.64   0.964
  sub62                    108.23       0.00       0.00       1.27      98.30       7.39     105.69        2.90  1887.57   0.976
  sub63                    108.23       0.00       0.00       5.16      75.88      26.23     102.12        2.32  1540.55   0.943
  sub64                    108.23       0.00       0.00       2.60      90.80      13.64     104.43        2.51  1574.89   0.965
  sub65                    108.23       0.00       0.00       2.25      92.91      11.82     104.74        2.88  1768.07   0.968
  sub66                    108.23       0.00       0.00       6.48      75.77      24.91     100.68        4.69  2484.20   0.930
  sub67                    108.23       0.00       0.00       1.21      98.34       7.45     105.79        1.97  1393.49   0.977
  sub68                    108.23       0.00       0.00       2.30      91.90      12.86     104.76        2.88  1929.02   0.968
  sub69                    108.23       0.00       0.00       2.10      91.89      14.14     106.03        3.93  2352.09   0.980
  sub70                    108.23       0.00       0.00       7.12      71.27      29.68     100.95        2.92  1409.30   0.933
  sub71                    108.23       0.00       0.00       1.31      98.25       7.35     105.60        2.76  1698.07   0.976
  sub72                    108.23       0.00       0.00       1.17      99.25       6.41     105.67        1.45   836.35   0.976
  
  
  ******************
  Node Depth Summary
  ******************
  
  ---------------------------------------------------------------------------------
                                 Average  Maximum  Maximum  Time of Max    Reported
                                   Depth    Depth      HGL   Occurrence   Max Depth
  Node                 Type       Meters   Meters   Meters  days hr:min      Meters
  ---------------------------------------------------------------------------------
  WS02003060           JUNCTION     0.26     0.38     5.32     0  02:48        0.38
  WS02003066           JUNCTION     0.21     0.30     5.85     0  02:47        0.30
  WS02003067           JUNCTION     0.53     0.70     6.02     0  02:47        0.70
  WS02003069           JUNCTION     0.28     0.43     5.01     0  02:48        0.43
  WS02003072           JUNCTION     0.35     0.50     4.87     0  02:49        0.50
  WS02003073           JUNCTION     0.20     0.30     4.36     0  02:49        0.30
  WS02004401           JUNCTION     0.63     0.88     6.88     0  02:44        0.87
  WS02004402           JUNCTION     0.66     0.90     6.86     0  02:46        0.90
  WS02004403           JUNCTION     0.69     0.92     6.85     0  02:45        0.92
  WS02004404           JUNCTION     0.76     1.04     6.89     0  02:43        1.00
  WS02004405           JUNCTION     0.75     0.97     6.82     0  02:46        0.96
  WS02004406           JUNCTION     0.76     0.96     6.79     0  02:45        0.96
  WS02004407           JUNCTION     0.19     0.30     6.61     0  02:46        0.30
  WS02004409           JUNCTION     0.43     0.67     6.44     0  02:46        0.67
  WS02004410           JUNCTION     0.45     0.68     6.40     0  02:46        0.68
  WS02004411           JUNCTION     0.47     0.69     6.37     0  02:46        0.69
  WS02004412           JUNCTION     0.49     0.70     6.34     0  02:47        0.70
  WS02004413           JUNCTION     0.65     0.86     6.33     0  02:47        0.86
  WS02006109           JUNCTION     0.69     1.36     7.98     0  02:57        1.01
  WS02006110           JUNCTION     0.69     1.74     8.32     0  02:57        1.00
  WS02006111           JUNCTION     0.19     0.29     6.99     0  03:12        0.29
  WS02006112           JUNCTION     0.79     1.10     6.98     0  03:14        1.07
  WS02006113           JUNCTION     0.30     0.46     7.35     0  02:29        0.46
  WS02006115           JUNCTION     0.52     0.77     6.91     0  02:43        0.77
  WS02006116           JUNCTION     0.60     0.85     6.89     0  02:44        0.85
  WS02006228           JUNCTION     0.69     1.36     8.01     0  03:08        1.10
  WS02006229           JUNCTION     0.66     1.41     8.10     0  03:08        1.12
  WS02006230           JUNCTION     0.66     1.70     8.45     0  03:08        1.27
  WS02006231           JUNCTION     0.46     1.32     8.44     0  03:08        1.00
  WS02006232           JUNCTION     0.61     1.54     8.58     0  02:58        1.54
  WS02006234           JUNCTION     0.53     1.79     8.95     0  02:58        1.79
  WS02006235           JUNCTION     0.57     2.00     9.16     0  02:46        1.85
  WS02006238           JUNCTION     0.60     2.09     9.23     0  02:46        1.89
  WS02006239           JUNCTION     0.58     2.01     9.22     0  02:46        1.71
  WS02006240           JUNCTION     0.54     1.82     9.11     0  02:46        1.45
  WS02006242           JUNCTION     0.62     1.55     8.82     0  02:46        1.38
  WS02006243           JUNCTION     0.52     1.41     8.83     0  02:50        1.25
  WS02006245           JUNCTION     0.52     1.33     8.81     0  02:50        1.20
  WS02006247           JUNCTION     0.55     1.31     8.81     0  01:53        1.20
  WS02006248           JUNCTION     0.51     1.10     8.69     0  01:53        1.10
  WS02006249           JUNCTION     0.54     1.09     8.69     0  01:53        1.09
  WS02006251           JUNCTION     0.54     1.41     9.08     0  01:54        1.16
  WS02006252           JUNCTION     0.39     1.50     9.74     0  00:00        0.74
  WS02006256           JUNCTION     1.02     2.35     9.28     0  00:00        2.35
  WSF200               JUNCTION     0.18     0.29     5.52     0  02:47        0.29
  YS02001580           JUNCTION     0.11     0.87     9.42     0  01:57        0.77
  YS02001583           JUNCTION     0.15     0.93     9.43     0  01:57        0.82
  YS02001586           JUNCTION     0.23     1.13     9.30     0  01:57        1.13
  YS02001590           JUNCTION     0.33     1.37     9.23     0  02:46        1.37
  YS02001593           JUNCTION     0.26     1.30     9.16     0  02:09        1.30
  YS02001596           JUNCTION     0.36     1.66     9.08     0  02:09        1.66
  YS02001600           JUNCTION     0.43     1.86     8.99     0  02:35        1.86
  YS02001601           JUNCTION     0.62     2.06     8.90     0  01:56        2.06
  YS02001602           JUNCTION     0.53     1.87     8.77     0  02:02        1.87
  YS02001605           JUNCTION     0.49     1.78     8.68     0  02:04        1.78
  YS02001607           JUNCTION     0.48     1.65     8.50     0  02:04        1.65
  YS02001610           JUNCTION     0.53     1.68     8.48     0  02:03        1.68
  YS02001613           JUNCTION     0.48     1.67     8.51     0  02:09        1.67
  YS02001616           JUNCTION     0.41     1.61     8.52     0  02:20        1.61
  YS02001619           JUNCTION     0.39     1.61     8.54     0  02:20        1.61
  YS02001622           JUNCTION     0.38     1.58     8.49     0  02:30        1.58
  YS02001625           JUNCTION     0.65     1.78     8.38     0  02:03        1.78
  YS02001629           JUNCTION     0.51     1.85     8.40     0  02:04        1.85
  YS02001633           JUNCTION     0.59     2.07     8.53     0  02:23        2.06
  YS02001641           JUNCTION     0.58     1.98     8.42     0  02:09        1.98
  YS02001644           JUNCTION     0.57     1.92     8.35     0  02:09        1.92
  YS02001647           JUNCTION     0.36     1.79     8.40     0  02:24        1.79
  YS02001649           JUNCTION     0.42     2.05     8.44     0  02:23        2.05
  YS02001652           JUNCTION     0.31     1.98     8.57     0  02:24        1.97
  YS02001655           JUNCTION     0.24     1.85     8.70     0  02:24        1.84
  YS02001658           JUNCTION     0.18     1.69     8.83     0  02:24        1.67
  YS02001661           JUNCTION     0.20     1.56     8.96     0  02:24        1.54
  YS02001664           JUNCTION     0.07     1.16     9.08     0  02:24        1.14
  YS02001745           JUNCTION     0.10     1.12     8.64     0  02:24        1.11
  YS02001748           JUNCTION     0.18     1.51     8.59     0  02:24        1.50
  YS02001751           JUNCTION     0.21     1.66     8.54     0  02:24        1.66
  YS02001754           JUNCTION     0.28     1.88     8.49     0  02:24        1.87
  YS02001757           JUNCTION     0.45     2.17     8.43     0  02:23        2.15
  YS02001759           JUNCTION     0.38     2.15     8.52     0  02:23        2.14
  YS02001762           JUNCTION     0.37     2.10     8.50     0  02:23        2.09
  YS02001765           JUNCTION     0.35     2.04     8.49     0  02:23        2.04
  YS02001767           JUNCTION     0.35     1.99     8.47     0  02:23        1.98
  YS02001770           JUNCTION     0.36     1.95     8.44     0  02:05        1.95
  YS02001774           JUNCTION     0.42     2.01     8.43     0  02:05        2.00
  YS02001779           JUNCTION     0.26     1.68     8.37     0  02:05        1.68
  YS02001783           JUNCTION     0.26     1.27     7.41     0  02:23        1.26
  YS02001784           JUNCTION     0.27     1.15     7.22     0  02:24        1.14
  YS02001786           JUNCTION     0.23     0.89     6.92     0  02:23        0.89
  YS02001788           JUNCTION     0.16     0.63     6.61     0  02:24        0.63
  YS02001790           JUNCTION     0.20     0.73     6.38     0  02:24        0.72
  YS02001791           JUNCTION     0.12     0.45     5.92     0  02:24        0.44
  YS02001793           JUNCTION     0.07     0.30     5.13     0  02:35        0.30
  YS02001882           JUNCTION     0.34     1.72     8.44     0  02:23        1.71
  YS02001884           JUNCTION     0.43     1.82     8.44     0  02:24        1.81
  YS02001887           JUNCTION     0.51     1.89     8.43     0  02:23        1.88
  YS02001890           JUNCTION     0.54     1.81     8.32     0  02:07        1.81
  YS02001895           JUNCTION     0.31     1.57     8.31     0  02:30        1.56
  YS02001898           JUNCTION     0.31     1.56     8.30     0  02:30        1.56
  YS02001901           JUNCTION     0.43     1.68     8.29     0  02:16        1.68
  YS02001904           JUNCTION     0.41     1.64     8.27     0  02:09        1.64
  YS02001907           JUNCTION     0.74     1.96     8.25     0  02:07        1.96
  YS02001910           JUNCTION     0.54     2.01     8.52     0  02:23        2.01
  YS02001915           JUNCTION     0.35     2.00     8.72     0  02:22        2.00
  YS02001918           JUNCTION     0.20     1.74     8.81     0  02:25        1.73
  YS02001920           JUNCTION     0.28     1.85     8.86     0  02:25        1.83
  YS02001923           JUNCTION     0.16     1.63     8.89     0  02:25        1.62
  YS02001926           JUNCTION     0.19     1.48     8.93     0  02:25        1.47
  YS02001929           JUNCTION     0.11     1.28     8.97     0  02:25        1.27
  YS02006553           JUNCTION     0.74     2.00     8.28     0  02:23        1.99
  YS02006556           JUNCTION     0.71     2.01     8.32     0  02:23        2.00
  YS02006558           JUNCTION     0.75     2.07     8.34     0  02:23        2.06
  YS02006561           JUNCTION     0.17     0.94     7.60     0  02:24        0.94
  YS02163301           JUNCTION     0.53     1.95     8.47     0  02:58        1.95
  YS02163601           JUNCTION     0.63     2.08     8.48     0  02:58        2.08
  YS02164001           JUNCTION     0.56     1.98     8.44     0  02:09        1.98
  CC-1                 OUTFALL      0.00     0.00     0.00     0  00:00        0.00
  CC-2                 OUTFALL      0.00     0.00     0.00     0  00:00        0.00
  JK-1                 OUTFALL      0.00     0.00     0.00     0  00:00        0.00
  JK-2                 OUTFALL      0.00     0.00     0.00     0  00:00        0.00
  WSC                  OUTFALL      0.20     0.30     0.97     0  02:50        0.30
  CC-storage           STORAGE      0.97     2.03     7.53     0  02:48        2.03
  JK-storage           STORAGE      2.94     4.23     5.03     0  02:35        4.20
  
  
  *******************
  Node Inflow Summary
  *******************
  
  -------------------------------------------------------------------------------------------------
                                  Maximum  Maximum                  Lateral       Total        Flow
                                  Lateral    Total  Time of Max      Inflow      Inflow     Balance
                                   Inflow   Inflow   Occurrence      Volume      Volume       Error
  Node                 Type           LPS      LPS  days hr:min    10^6 ltr    10^6 ltr     Percent
  -------------------------------------------------------------------------------------------------
  WS02003060           JUNCTION     16.53   554.32     0  02:48       0.476        6.63       0.031
  WS02003066           JUNCTION      0.00   537.63     0  02:47           0        6.16       0.021
  WS02003067           JUNCTION      0.00   537.61     0  02:47           0        6.16       0.067
  WS02003069           JUNCTION      0.32   554.47     0  02:48     0.00922        6.64       0.053
  WS02003072           JUNCTION      0.00   554.31     0  02:48           0        6.64       0.095
  WS02003073           JUNCTION      1.82   556.00     0  02:49      0.0524        6.68       0.076
  WS02004401           JUNCTION      0.00   539.36     0  02:45           0        6.26       0.175
  WS02004402           JUNCTION      0.00   541.27     0  02:17           0        6.25       0.177
  WS02004403           JUNCTION      0.00   539.36     0  02:45           0        6.24       0.170
  WS02004404           JUNCTION      0.16   555.70     0  02:16     0.00467        6.24       0.146
  WS02004405           JUNCTION      0.04   604.81     0  02:16      0.0011        6.23       0.141
  WS02004406           JUNCTION      0.00   543.44     0  02:45           0        6.22       0.348
  WS02004407           JUNCTION      0.00   539.17     0  02:45           0         6.2       0.026
  WS02004409           JUNCTION      0.00   538.73     0  02:46           0         6.2       0.050
  WS02004410           JUNCTION      0.00   538.22     0  02:46           0        6.19       0.073
  WS02004411           JUNCTION      0.00   538.05     0  02:46           0        6.19       0.092
  WS02004412           JUNCTION      0.00   537.78     0  02:46           0        6.18       0.120
  WS02004413           JUNCTION      0.00   537.79     0  02:47           0        6.17       0.213
  WS02006109           JUNCTION      1.23   561.43     0  03:08      0.0354        6.32       0.202
  WS02006110           JUNCTION      0.00   560.94     0  03:08           0        6.31       0.140
  WS02006111           JUNCTION      0.00   560.79     0  03:10           0         6.3       0.020
  WS02006112           JUNCTION      0.00   543.20     0  03:12           0         6.3       0.293
  WS02006113           JUNCTION      0.00   572.09     0  02:58           0         6.3       0.047
  WS02006115           JUNCTION      0.00   553.07     0  03:14           0        6.28       0.119
  WS02006116           JUNCTION      0.00   540.42     0  02:48           0        6.27       0.105
  WS02006228           JUNCTION      0.00   560.01     0  03:08           0        6.29       0.102
  WS02006229           JUNCTION      0.00   559.49     0  03:08           0         6.3       0.085
  WS02006230           JUNCTION     10.28   589.73     0  02:30       0.296         6.3       0.067
  WS02006231           JUNCTION      0.00   575.43     0  02:27           0        6.01      -0.003
  WS02006232           JUNCTION      0.00   574.57     0  02:27           0        6.02       0.223
  WS02006234           JUNCTION      0.00   569.90     0  02:27           0        6.01      -0.137
  WS02006235           JUNCTION      0.00   562.40     0  02:51           0        6.09       0.157
  WS02006238           JUNCTION      0.00   424.29     0  02:50           0         5.1      -0.077
  WS02006239           JUNCTION      0.00   423.30     0  02:05           0        5.06      -0.072
  WS02006240           JUNCTION      0.00   420.49     0  02:05           0        5.03      -0.023
  WS02006242           JUNCTION      0.00   420.92     0  02:05           0           5      -0.008
  WS02006243           JUNCTION      0.00   420.11     0  02:05           0        4.97      -0.131
  WS02006245           JUNCTION      0.00   419.92     0  02:55           0        4.97       0.137
  WS02006247           JUNCTION      0.00   420.17     0  02:55           0        4.97      -0.012
  WS02006248           JUNCTION      0.00   421.34     0  02:55           0        4.97       0.043
  WS02006249           JUNCTION      0.00   459.02     0  00:00           0        5.24       0.123
  WS02006251           JUNCTION      0.08   407.52     0  01:54     0.00222        5.24       0.014
  WS02006252           JUNCTION      0.00   400.00     0  00:00           0        5.23      -0.052
  WS02006256           JUNCTION      0.00   300.00     0  00:00           0        1.51      -0.857
  WSF200               JUNCTION      0.00   537.66     0  02:47           0        6.16       0.006
  YS02001580           JUNCTION      0.00    50.82     0  01:57           0     0.00419       0.184
  YS02001583           JUNCTION      0.00    86.04     0  01:57           0      0.0161      -2.288
  YS02001586           JUNCTION   1409.30  1409.33     0  02:26        2.92        2.93       0.029
  YS02001590           JUNCTION      0.00   318.08     0  02:09           0        1.78      -0.024
  YS02001593           JUNCTION      0.00   318.08     0  02:17           0        1.78       0.004
  YS02001596           JUNCTION      0.00   318.02     0  02:26           0        1.78      -0.005
  YS02001600           JUNCTION      0.00   318.28     0  02:09           0        1.78       0.015
  YS02001601           JUNCTION   2352.09  2669.59     0  02:25        3.92         5.7       0.019
  YS02001602           JUNCTION      0.00   495.51     0  01:57           0        2.84       0.022
  YS02001605           JUNCTION      0.00   494.84     0  01:57           0        2.63       0.029
  YS02001607           JUNCTION      0.00   494.75     0  01:57           0        2.63       0.078
  YS02001610           JUNCTION      0.00   954.53     0  02:25           0        3.36       0.075
  YS02001613           JUNCTION      0.00   617.45     0  02:26           0        2.55       0.059
  YS02001616           JUNCTION      0.00   617.69     0  02:25           0        2.55       0.019
  YS02001619           JUNCTION   2484.20  2484.20     0  02:26        4.69        6.51       0.001
  YS02001622           JUNCTION      0.00  1053.98     0  02:26           0        5.46       0.001
  YS02001625           JUNCTION      0.00  1505.44     0  02:29           0        6.03       0.180
  YS02001629           JUNCTION      0.00   969.11     0  02:25           0        4.13      -0.006
  YS02001633           JUNCTION   1768.27  1768.27     0  02:25        2.89        6.25       0.054
  YS02001641           JUNCTION      0.00  1232.34     0  02:02           0        5.48       0.051
  YS02001644           JUNCTION   1574.93  3194.23     0  02:25        2.51        8.24       0.039
  YS02001647           JUNCTION      0.00  1542.11     0  02:02           0        6.39       0.005
  YS02001649           JUNCTION      0.00  1786.43     0  02:04           0        8.45       0.003
  YS02001652           JUNCTION      0.00  1541.91     0  02:25           0        2.32      -0.043
  YS02001655           JUNCTION      0.15  1542.87     0  02:25     0.00443        2.32       0.020
  YS02001658           JUNCTION      0.00  1541.55     0  02:25           0        2.32      -0.056
  YS02001661           JUNCTION      0.00  1541.37     0  02:25           0        2.32      -0.005
  YS02001664           JUNCTION   1540.55  1540.55     0  02:25        2.32        2.32      -0.005
  YS02001745           JUNCTION    949.13   949.13     0  02:25        1.38        1.38       0.078
  YS02001748           JUNCTION      0.04   951.05     0  02:25      0.0013        1.38      -0.134
  YS02001751           JUNCTION      0.01   951.18     0  02:25    0.000317        1.39       0.046
  YS02001754           JUNCTION      0.26   952.07     0  02:25     0.00749         1.4      -0.099
  YS02001757           JUNCTION      0.00  2877.63     0  02:14           0        13.3       0.006
  YS02001759           JUNCTION   1321.68  1321.68     0  02:25        1.92        3.77      -0.006
  YS02001762           JUNCTION      0.00   670.70     0  02:13           0        1.87       0.000
  YS02001765           JUNCTION      0.00   670.90     0  02:13           0        1.87       0.009
  YS02001767           JUNCTION      0.54   670.44     0  02:13      0.0154        1.87       0.007
  YS02001770           JUNCTION   1887.72  2027.61     0  02:25         2.9        2.96      -0.008
  YS02001774           JUNCTION      0.00   852.12     0  02:27           0       0.818       0.141
  YS02001779           JUNCTION      0.01   851.77     0  02:28    0.000144       0.773      -0.005
  YS02001783           JUNCTION      0.00  1182.93     0  02:24           0        5.45       0.004
  YS02001784           JUNCTION      1.06  1184.40     0  02:24      0.0305        5.48       0.010
  YS02001786           JUNCTION      0.06  1184.62     0  02:24     0.00162        5.49       0.014
  YS02001788           JUNCTION      0.07  1185.68     0  02:24     0.00204        5.49       0.005
  YS02001790           JUNCTION      0.15  1198.20     0  02:25     0.00446        5.49       0.020
  YS02001791           JUNCTION      0.00  1309.02     0  02:24           0        5.49      -0.038
  YS02001793           JUNCTION      0.00  1275.86     0  02:25           0        5.49       0.003
  YS02001882           JUNCTION      0.00    24.11     0  02:02           0      0.0136       4.625
  YS02001884           JUNCTION      0.00    34.03     0  02:01           0      0.0498       5.139
  YS02001887           JUNCTION   1393.94  1394.90     0  02:25        1.98        2.01       0.218
  YS02001890           JUNCTION      0.00  1393.89     0  02:25           0        1.97       0.258
  YS02001895           JUNCTION      0.00   518.51     0  02:29           0        1.56       0.123
  YS02001898           JUNCTION      0.00   518.16     0  02:29           0        1.56      -0.003
  YS02001901           JUNCTION      0.00   518.24     0  02:29           0        1.56       0.220
  YS02001904           JUNCTION      0.00   518.07     0  02:21           0        1.57       0.172
  YS02001907           JUNCTION      0.00  3261.87     0  02:25           0        5.97       0.302
  YS02001910           JUNCTION      0.00  1993.19     0  02:27           0        4.17       0.174
  YS02001915           JUNCTION   1698.09  2538.19     0  02:25        2.76        4.31       0.033
  YS02001918           JUNCTION      0.00   841.85     0  02:25           0        1.55       0.013
  YS02001920           JUNCTION      2.87   842.34     0  02:25      0.0827        1.55       0.060
  YS02001923           JUNCTION      0.04   837.84     0  02:25     0.00109        1.46      -0.001
  YS02001926           JUNCTION      0.05   837.02     0  02:25      0.0015        1.45      -0.005
  YS02001929           JUNCTION    836.35   836.35     0  02:25        1.45        1.45      -0.008
  YS02006553           JUNCTION      0.00   803.61     0  02:43           0        3.06       0.387
  YS02006556           JUNCTION      0.00   803.27     0  02:44           0        3.07       0.263
  YS02006558           JUNCTION   1929.90  1929.90     0  02:25        2.91        5.72       0.058
  YS02006561           JUNCTION      0.00  1183.08     0  02:24           0        5.45       0.000
  YS02163301           JUNCTION      0.00   967.84     0  02:25           0        4.13       0.038
  YS02163601           JUNCTION      0.11  1231.61     0  02:02     0.00317        5.47       0.093
  YS02164001           JUNCTION      0.00  1231.84     0  02:02           0        5.47       0.037
  CC-1                 OUTFALL       0.00   683.00     0  00:00           0        4.61       0.000
  CC-2                 OUTFALL       0.00   683.00     0  00:00           0        4.32       0.000
  JK-1                 OUTFALL       0.00  1000.00     0  00:00           0         2.7       0.000
  JK-2                 OUTFALL       0.00  1000.00     0  00:00           0        1.27       0.000
  WSC                  OUTFALL       0.00   555.82     0  02:50           0        6.68       0.000
  CC-storage           STORAGE       0.00  2878.05     0  02:15           0        15.6      -0.165
  JK-storage           STORAGE       0.00  1264.44     0  02:25           0        5.64       0.063
  
  
  **********************
  Node Surcharge Summary
  **********************
  
  Surcharging occurs when water rises above the top of the highest conduit.
  ---------------------------------------------------------------------
                                               Max. Height   Min. Depth
                                   Hours       Above Crown    Below Rim
  Node                 Type      Surcharged         Meters       Meters
  ---------------------------------------------------------------------
  WS02004404           JUNCTION        0.01          0.036        2.744
  WS02006109           JUNCTION        2.47          0.537        1.283
  WS02006110           JUNCTION        0.81          0.828        1.022
  WS02006112           JUNCTION        1.17          0.102        1.578
  WS02006228           JUNCTION        2.46          0.531        1.669
  WS02006229           JUNCTION        2.48          0.611        1.839
  WS02006230           JUNCTION        0.84          0.624        0.946
  WS02006231           JUNCTION        1.03          0.610        0.920
  WS02006232           JUNCTION        2.62          0.839        0.641
  WS02006234           JUNCTION        1.41          1.070        0.170
  WS02006235           JUNCTION        2.43          1.290        0.000
  WS02006238           JUNCTION        2.52          1.370        0.060
  WS02006239           JUNCTION        2.46          1.269        0.021
  WS02006240           JUNCTION        2.50          1.112        0.278
  WS02006242           JUNCTION        2.70          0.820        0.000
  WS02006243           JUNCTION        2.52          0.704        0.066
  WS02006245           JUNCTION        2.51          0.619        0.231
  WS02006247           JUNCTION        2.55          0.600        0.160
  WS02006248           JUNCTION        2.49          0.380        0.000
  WS02006249           JUNCTION        2.53          0.390        0.000
  WS02006251           JUNCTION        1.13          0.381        0.799
  WS02006252           JUNCTION        3.02          1.100        0.000
  WS02006256           JUNCTION        6.15          2.050        0.000
  YS02001580           JUNCTION        1.00          0.275        0.175
  YS02001583           JUNCTION        1.01          0.293        0.207
  YS02001586           JUNCTION        1.14          0.510        0.000
  YS02001590           JUNCTION        1.22          0.723        0.027
  YS02001593           JUNCTION        1.22          0.679        0.161
  YS02001596           JUNCTION        1.35          0.932        0.138
  YS02001600           JUNCTION        1.54          1.183        0.007
  YS02001601           JUNCTION        1.89          1.440        0.000
  YS02001602           JUNCTION        1.79          1.270        0.000
  YS02001605           JUNCTION        1.73          1.180        0.000
  YS02001607           JUNCTION        1.22          0.649        0.031
  YS02001610           JUNCTION        1.25          0.680        0.000
  YS02001613           JUNCTION        1.21          0.671        0.029
  YS02001616           JUNCTION        1.17          0.610        0.000
  YS02001619           JUNCTION        1.15          0.610        0.000
  YS02001622           JUNCTION        1.15          0.585        0.035
  YS02001625           JUNCTION        1.35          0.780        0.000
  YS02001629           JUNCTION        1.08          0.470        0.000
  YS02001633           JUNCTION        1.40          1.052        0.008
  YS02001641           JUNCTION        1.34          0.980        0.120
  YS02001644           JUNCTION        1.31          0.920        0.000
  YS02001647           JUNCTION        1.08          0.793        0.107
  YS02001649           JUNCTION        1.21          1.050        0.000
  YS02001652           JUNCTION        1.04          0.947        0.183
  YS02001655           JUNCTION        0.91          0.855        0.345
  YS02001658           JUNCTION        0.56          0.692        0.608
  YS02001661           JUNCTION        0.21          0.487        0.903
  YS02001664           JUNCTION        0.04          0.160        1.150
  YS02001745           JUNCTION        0.06          0.122        1.228
  YS02001748           JUNCTION        0.45          0.431        0.759
  YS02001751           JUNCTION        0.78          0.658        0.542
  YS02001754           JUNCTION        0.98          0.828        0.322
  YS02001757           JUNCTION        1.29          1.170        0.040
  YS02001759           JUNCTION        1.20          1.152        0.058
  YS02001762           JUNCTION        1.17          1.103        0.047
  YS02001765           JUNCTION        1.13          1.040        0.060
  YS02001767           JUNCTION        1.11          0.986        0.044
  YS02001770           JUNCTION        1.07          0.920        0.000
  YS02001774           JUNCTION        1.16          1.012        0.038
  YS02001779           JUNCTION        0.97          0.680        0.000
  YS02001783           JUNCTION        0.84          0.466        1.134
  YS02001784           JUNCTION        0.81          0.348        1.142
  YS02001786           JUNCTION        0.67          0.094        1.336
  YS02001882           JUNCTION        0.77          0.723        0.107
  YS02001884           JUNCTION        0.78          0.760        0.110
  YS02001887           JUNCTION        0.83          0.845        0.105
  YS02001890           JUNCTION        0.85          0.760        0.000
  YS02001895           JUNCTION        0.75          0.567        0.183
  YS02001898           JUNCTION        0.75          0.535        0.205
  YS02001901           JUNCTION        0.81          0.678        0.192
  YS02001904           JUNCTION        0.80          0.644        0.206
  YS02001907           JUNCTION        1.19          0.950        0.000
  YS02001910           JUNCTION        0.88          1.014        0.086
  YS02001915           JUNCTION        0.77          1.000        0.000
  YS02001918           JUNCTION        0.66          0.741        0.069
  YS02001920           JUNCTION        0.67          0.848        0.292
  YS02001923           JUNCTION        0.28          0.422        0.398
  YS02001926           JUNCTION        0.31          0.483        0.417
  YS02001929           JUNCTION        0.16          0.280        0.500
  YS02006553           JUNCTION        1.21          0.996        0.194
  YS02006556           JUNCTION        1.01          0.969        0.381
  YS02006558           JUNCTION        1.00          0.972        0.428
  YS02006561           JUNCTION        0.62          0.139        1.011
  YS02163301           JUNCTION        1.37          0.949        0.081
  YS02163601           JUNCTION        1.46          1.080        0.000
  YS02164001           JUNCTION        1.34          0.985        0.115
  
  
  *********************
  Node Flooding Summary
  *********************
  
  Flooding refers to all water that overflows a node, whether it ponds or not.
  --------------------------------------------------------------------------
                                                             Total   Maximum
                                 Maximum   Time of Max       Flood    Ponded
                        Hours       Rate    Occurrence      Volume     Depth
  Node                 Flooded       LPS   days hr:min    10^6 ltr    Meters
  --------------------------------------------------------------------------
  WS02006235              0.01     15.37      0  02:46       0.000     0.000
  WS02006242              0.01     21.49      0  02:46       0.000     0.000
  WS02006248              0.02     30.17      0  01:53       0.000     0.000
  WS02006249              1.08    105.79      0  01:54       0.257     0.000
  WS02006252              0.01    245.63      0  00:00       0.000     0.000
  WS02006256              1.40    293.19      0  00:00       0.479     0.000
  YS02001586              0.81   1091.74      0  02:26       1.140     0.000
  YS02001601              1.07   2271.12      0  02:25       2.861     0.000
  YS02001602              0.97     62.01      0  02:17       0.204     0.000
  YS02001605              0.01      0.31      0  02:04       0.000     0.000
  YS02001610              0.88    953.94      0  02:25       1.547     0.000
  YS02001616              0.10      1.58      0  02:20       0.000     0.000
  YS02001619              0.20    814.16      0  02:26       0.311     0.000
  YS02001625              0.87   1505.23      0  02:30       2.665     0.000
  YS02001629              0.26    517.50      0  02:25       0.204     0.000
  YS02001644              0.46   3194.11      0  02:25       2.099     0.000
  YS02001649              0.03     41.98      0  02:24       0.002     0.000
  YS02001770              0.16   1176.22      0  02:25       0.327     0.000
  YS02001779              0.40    851.48      0  02:28       0.755     0.000
  YS02001890              0.33    876.97      0  02:25       0.406     0.000
  YS02001907              0.59   3261.00      0  02:25       3.135     0.000
  YS02001915              0.11    545.33      0  02:25       0.123     0.000
  YS02163601              0.01      0.16      0  02:58       0.000     0.000
  
  
  **********************
  Storage Volume Summary
  **********************
  
  ------------------------------------------------------------------------------------------------
                         Average    Avg   Evap  Exfil     Maximum    Max    Time of Max    Maximum
                          Volume   Pcnt   Pcnt   Pcnt      Volume   Pcnt     Occurrence    Outflow
  Storage Unit           1000 m³   Full   Loss   Loss     1000 m³   Full    days hr:min        LPS
  ------------------------------------------------------------------------------------------------
  CC-storage               2.716   42.4    0.0    0.0       5.648   88.1       0  02:48    1783.53
  JK-storage               0.148   50.7    0.0    0.0       0.213   73.0       0  02:35    2300.00
  
  
  ***********************
  Outfall Loading Summary
  ***********************
  
  -----------------------------------------------------------
                         Flow       Avg       Max       Total
                         Freq      Flow      Flow      Volume
  Outfall Node           Pcnt       LPS       LPS    10^6 ltr
  -----------------------------------------------------------
  CC-1                  23.71    683.00    683.00       4.608
  CC-2                  22.65    683.00    683.00       4.315
  JK-1                  10.70   1000.00   1000.00       2.696
  JK-2                   5.09   1000.00   1000.00       1.265
  WSC                   99.96    288.30    555.82       6.677
  -----------------------------------------------------------
  System                32.42   3654.30   3366.23      19.561
  
  
  ********************
  Link Flow Summary
  ********************
  
  -----------------------------------------------------------------------------
                                 Maximum  Time of Max   Maximum    Max/    Max/
                                  |Flow|   Occurrence   |Veloc|    Full    Full
  Link                 Type          LPS  days hr:min     m/sec    Flow   Depth
  -----------------------------------------------------------------------------
  1                    CONDUIT    555.82     0  02:50      2.83    0.19    0.30
  WS02003060WS02003069 CONDUIT    554.15     0  02:48      1.64    0.22    0.34
  WS02003066WSF200     CONDUIT    537.66     0  02:47      2.85    0.09    0.22
  WS02003067WS02003066 CONDUIT    537.63     0  02:47      1.21    0.17    0.42
  WS02003069WS02003072 CONDUIT    554.31     0  02:48      1.37    0.27    0.39
  WS02003072WS02003073 CONDUIT    554.18     0  02:49      1.44    1.20    0.37
  WS02004401WS02004402 CONDUIT    541.27     0  02:17      0.98    0.65    0.89
  WS02004402WS02004403 CONDUIT    539.36     0  02:45      0.97    0.77    0.91
  WS02004403WS02004404 CONDUIT    555.54     0  02:16      0.92    0.40    0.96
  WS02004404WS02004405 CONDUIT    604.78     0  02:16      1.08    5.93    0.98
  WS02004405WS02004406 CONDUIT    543.44     0  02:45      0.99    1.07    0.96
  WS02004406WS02004407 CONDUIT    539.17     0  02:45      1.04    0.24    0.63
  WS02004407WS02004409 CONDUIT    538.73     0  02:46      1.50    0.19    0.48
  WS02004409WS02004410 CONDUIT    538.22     0  02:46      0.98    0.70    0.68
  WS02004410WS02004411 CONDUIT    538.05     0  02:46      0.94    0.73    0.69
  WS02004411WS02004412 CONDUIT    537.78     0  02:46      0.92    0.76    0.69
  WS02004412WS02004413 CONDUIT    537.79     0  02:47      0.82    0.36    0.78
  WS02004413WS02003067 CONDUIT    537.61     0  02:47      1.11    0.23    0.59
  WS02006109WS02006110 CONDUIT    560.94     0  03:08      1.12    1.08    1.00
  WS02006110WS02006113 CONDUIT    572.09     0  02:58      1.38    0.52    0.79
  WS02006111WS02006112 CONDUIT    543.20     0  03:12      1.81    0.26    0.67
  WS02006112WS02006115 CONDUIT    553.07     0  03:14      0.81    0.33    0.88
  WS02006113WS02006111 CONDUIT    560.79     0  03:10      2.47    0.67    0.46
  WS02006115WS02006116 CONDUIT    540.42     0  02:48      0.97    0.69    0.78
  WS02006116WS02004401 CONDUIT    539.36     0  02:45      0.98    0.74    0.86
  WS02006228WS02006109 CONDUIT    560.20     0  03:08      1.11    2.45    1.00
  WS02006229WS02006228 CONDUIT    560.01     0  03:08      1.14    1.85    1.00
  WS02006230WS02006229 CONDUIT    559.49     0  03:08      1.45   12.45    1.00
  WS02006231WS02006230 CONDUIT    579.45     0  02:30      1.58    8.79    1.00
  WS02006232WS02006231 CONDUIT    575.43     0  02:27      1.50    1.21    1.00
  WS02006234WS02006232 CONDUIT    574.57     0  02:27      1.49    1.16    1.00
  WS02006235WS02006234 CONDUIT    569.90     0  02:27      1.48    6.01    1.00
  WS02006238WS02006235 CONDUIT    426.92     0  02:50      1.47    0.95    1.00
  WS02006239WS02006238 CONDUIT    424.29     0  02:50      1.10    1.36    1.00
  WS02006240WS02006239 CONDUIT    423.30     0  02:05      1.24    1.33    1.00
  WS02006242WS02006240 CONDUIT    420.49     0  02:05      1.13    1.67    1.00
  WS02006243WS02006242 CONDUIT    420.92     0  02:05      1.40    0.90    1.00
  WS02006245WS02006243 CONDUIT    420.11     0  02:05      1.45    1.24    1.00
  WS02006247WS02006245 CONDUIT    419.92     0  02:55      1.43    3.33    1.00
  WS02006248WS02006247 CONDUIT    420.17     0  02:55      1.44    0.91    1.00
  WS02006249WS02006248 CONDUIT    421.34     0  02:55      1.36    2.31    1.00
  WS02006251WS02006249 CONDUIT    459.02     0  00:00      1.99    1.32    1.00
  WS02006252WS02006251 CONDUIT    407.45     0  01:54     24.61    1.50    1.00
  WS02006256WS02006235 CONDUIT    288.91     0  00:00      4.23    3.06    1.00
  WSF200WS02003060     CONDUIT    537.79     0  02:48      2.06    0.12    0.28
  YS02001580YS02001583 CONDUIT     50.82     0  01:57      0.43    0.20    1.00
  YS02001583YS02001586 CONDUIT     86.04     0  01:57      0.35    0.13    1.00
  YS02001586YS02001590 CONDUIT    318.08     0  02:09      1.23    0.56    1.00
  YS02001590YS02001593 CONDUIT    318.08     0  02:17      1.12    2.00    1.00
  YS02001593YS02001596 CONDUIT    318.02     0  02:26      1.73    0.50    1.00
  YS02001596YS02001600 CONDUIT    318.28     0  02:09      1.29    0.62    1.00
  YS02001600YS02001601 CONDUIT    318.39     0  02:09      1.13    0.55    1.00
  YS02001601YS02001602 CONDUIT    495.51     0  01:57      1.75    1.79    1.00
  YS02001602YS02001605 CONDUIT    494.84     0  01:57      1.75   10.47    1.00
  YS02001605YS02001607 CONDUIT    494.75     0  01:57      1.75    2.71    1.00
  YS02001607YS02001610 CONDUIT    493.13     0  01:57      0.63    0.47    1.00
  YS02001610YS02001613 CONDUIT    618.11     0  02:25      0.79    0.71    1.00
  YS02001613YS02001616 CONDUIT    617.45     0  02:26      0.79    0.53    1.00
  YS02001616YS02001619 CONDUIT    617.69     0  02:25      0.79    1.07    1.00
  YS02001619YS02001622 CONDUIT   1053.98     0  02:26      1.34    1.55    1.00
  YS02001622YS02001625 CONDUIT   1053.69     0  02:29      1.34    0.56    1.00
  YS02001625YS02001629 CONDUIT    895.26     0  02:02      1.14    0.43    1.00
  YS02001629YS02163301 CONDUIT    969.11     0  02:25      1.23    1.19    1.00
  YS02001633YS02163601 CONDUIT   1231.50     0  02:02      1.57    1.29    1.00
  YS02001641YS02001644 CONDUIT   1233.12     0  02:02      1.57    3.99    1.00
  YS02001644YS02001647 CONDUIT   1542.11     0  02:02      2.03    0.91    1.00
  YS02001647YS02001649 CONDUIT   1546.88     0  02:03      2.20    0.82    1.00
  YS02001649YS02001757 CONDUIT   1788.55     0  02:04      2.29    1.09    1.00
  YS02001652YS02001649 CONDUIT   1542.54     0  02:25      1.96    0.76    1.00
  YS02001655YS02001652 CONDUIT   1541.91     0  02:25      1.96    0.75    1.00
  YS02001658YS02001655 CONDUIT   1542.72     0  02:25      1.96    0.65    1.00
  YS02001661YS02001658 CONDUIT   1541.55     0  02:25      2.08    0.60    1.00
  YS02001664YS02001661 CONDUIT   1541.37     0  02:25      1.96    0.48    1.00
  YS02001745YS02001748 CONDUIT    951.00     0  02:25      1.91    0.37    1.00
  YS02001748YS02001751 CONDUIT    951.17     0  02:25      1.52    0.48    1.00
  YS02001751YS02001754 CONDUIT    951.81     0  02:25      1.36    0.46    1.00
  YS02001754YS02001757 CONDUIT    952.57     0  02:25      1.21    0.38    1.00
  YS02001757CaochengTiaoxuchi CONDUIT   2878.05     0  02:15      3.66    1.25    1.00
  YS02001759YS02001757 CONDUIT   1295.97     0  02:22      1.65    0.92    1.00
  YS02001762YS02001759 CONDUIT    670.75     0  02:13      0.85    0.77    1.00
  YS02001765YS02001762 CONDUIT    670.70     0  02:13      0.85    0.63    1.00
  YS02001767YS02001765 CONDUIT    670.90     0  02:13      0.85    0.84    1.00
  YS02001770YS02001767 CONDUIT    669.90     0  02:13      0.85    2.65    1.00
  YS02001774YS02001770 CONDUIT    852.12     0  02:27      1.08    0.54    1.00
  YS02001779YS02001774 CONDUIT    851.77     0  02:28      1.08    0.43    1.00
  YS02001783YS02001784 CONDUIT   1183.34     0  02:24      2.35    1.63    1.00
  YS02001784YS02001785 CONDUIT   1184.56     0  02:24      2.36    2.76    1.00
  YS02001786YS02001788 CONDUIT   1185.61     0  02:24      2.51    2.28    0.89
  YS02001788YS02001790 CONDUIT   1198.05     0  02:25      2.73    0.88    0.85
  YS02001790YS02001791 CONDUIT   1309.02     0  02:24      3.44    1.42    0.71
  YS02001791YS02001793 CONDUIT   1275.86     0  02:25      6.68    0.55    0.45
  YS02001793JiankangQianchi CONDUIT   1264.44     0  02:25      2.50    0.10    0.65
  YS02001882YS02001884 CONDUIT     24.11     0  02:02      0.17    0.03    1.00
  YS02001884YS02001887 CONDUIT     34.03     0  02:01      0.13    0.05    1.00
  YS02001887YS02001890 CONDUIT   1393.89     0  02:25      1.77    2.39    1.00
  YS02001890YS02001895 CONDUIT    518.51     0  02:29      0.66    0.24    1.00
  YS02001895YS02001898 CONDUIT    518.16     0  02:29      0.66    0.90    1.00
  YS02001898YS02001901 CONDUIT    518.24     0  02:29      0.66    0.33    1.00
  YS02001901YS02001904 CONDUIT    518.07     0  02:21      0.66    0.80    1.00
  YS02001904YS02001907 CONDUIT    518.56     0  02:29      0.66    0.18    1.00
  YS02001907YS02006553 CONDUIT    803.61     0  02:43      0.89    0.95    1.00
  YS02001910YS02001907 CONDUIT   1993.00     0  02:27      2.54    1.12    1.00
  YS02001915YS02001910 CONDUIT   1993.19     0  02:27      2.54    0.99    1.00
  YS02001918YS02001915 CONDUIT    843.33     0  02:25      1.07    0.47    1.00
  YS02001920YS02001918 CONDUIT    841.85     0  02:25      1.07    0.81    1.00
  YS02001923YS02001920 CONDUIT    839.47     0  02:25      1.07    0.38    1.00
  YS02001926YS02001923 CONDUIT    837.80     0  02:25      1.07    1.20    1.00
  YS02001929YS02001926 CONDUIT    836.97     0  02:25      1.07    0.40    1.00
  YS02006553YS02006556 CONDUIT    803.27     0  02:44      1.02    0.69    1.00
  YS02006556YS02006558 CONDUIT    805.68     0  02:44      1.03    0.64    1.00
  YS02006558YS02006561 CONDUIT   1183.08     0  02:24      4.18    2.61    1.00
  YS02006561YS02001783 CONDUIT   1182.93     0  02:24      2.35    0.61    1.00
  YS02163301YS02001633 CONDUIT    967.84     0  02:25      1.23    0.91    1.00
  YS02163601YS02164001 CONDUIT   1231.84     0  02:02      1.57    1.09    1.00
  YS02164001YS02001641 CONDUIT   1232.34     0  02:02      1.57    1.68    1.00
  CC-R1                PUMP       683.00     0  00:00              1.00
  CC-R2                PUMP       683.00     0  00:00              1.00
  CC-S1                PUMP       200.00     0  00:00              1.00
  CC-S2                PUMP       200.00     0  00:00              1.00
  JK-R1                PUMP      1000.00     0  00:00              1.00
  JK-R2                PUMP      1000.00     0  00:00              1.00
  JK-S                 PUMP       300.00     0  00:00              1.00
  
  
  ***************************
  Flow Classification Summary
  ***************************
  
  -------------------------------------------------------------------------------------
                      Adjusted    ---------- Fraction of Time in Flow Class ---------- 
                       /Actual         Up    Down  Sub   Sup   Up    Down  Norm  Inlet 
  Conduit               Length    Dry  Dry   Dry   Crit  Crit  Crit  Crit  Ltd   Ctrl  
  -------------------------------------------------------------------------------------
  1                       1.00   0.00  0.00  0.00  0.00  1.00  0.00  0.00  0.44  0.00
  WS02003060WS02003069    1.00   0.00  0.00  0.00  0.97  0.03  0.00  0.00  0.59  0.00
  WS02003066WSF200        1.00   0.13  0.00  0.00  0.00  0.87  0.00  0.00  0.74  0.00
  WS02003067WS02003066    1.00   0.10  0.02  0.00  0.88  0.00  0.00  0.00  0.00  0.00
  WS02003069WS02003072    1.00   0.00  0.00  0.00  0.99  0.01  0.00  0.00  0.65  0.00
  WS02003072WS02003073    1.00   0.00  0.00  0.00  0.00  0.00  0.00  1.00  0.00  0.00
  WS02004401WS02004402    1.00   0.02  0.00  0.00  0.98  0.00  0.00  0.00  0.00  0.00
  WS02004402WS02004403    1.00   0.02  0.00  0.00  0.97  0.00  0.00  0.00  0.00  0.00
  WS02004403WS02004404    1.00   0.00  0.03  0.00  0.97  0.00  0.00  0.00  0.00  0.00
  WS02004404WS02004405    1.00   0.00  0.00  0.00  1.00  0.00  0.00  0.00  0.01  0.00
  WS02004405WS02004406    1.00   0.00  0.00  0.00  1.00  0.00  0.00  0.00  0.00  0.00
  WS02004406WS02004407    1.00   0.00  0.05  0.00  0.95  0.00  0.00  0.00  0.00  0.00
  WS02004407WS02004409    1.00   0.05  0.00  0.00  0.94  0.01  0.00  0.00  0.95  0.00
  WS02004409WS02004410    1.00   0.05  0.00  0.00  0.95  0.00  0.00  0.00  0.03  0.00
  WS02004410WS02004411    1.00   0.05  0.00  0.00  0.95  0.00  0.00  0.00  0.01  0.00
  WS02004411WS02004412    1.00   0.05  0.00  0.00  0.95  0.00  0.00  0.00  0.00  0.00
  WS02004412WS02004413    1.00   0.05  0.00  0.00  0.94  0.00  0.00  0.00  0.01  0.00
  WS02004413WS02003067    1.00   0.06  0.04  0.00  0.00  0.00  0.90  0.00  0.00  0.00
  WS02006109WS02006110    1.00   0.00  0.01  0.00  0.98  0.00  0.01  0.00  0.00  0.00
  WS02006110WS02006113    1.00   0.01  0.01  0.00  0.98  0.00  0.00  0.00  0.00  0.00
  WS02006111WS02006112    1.00   0.02  0.00  0.00  0.98  0.00  0.00  0.00  0.98  0.00
  WS02006112WS02006115    1.00   0.02  0.00  0.00  0.97  0.00  0.00  0.00  0.00  0.00
  WS02006113WS02006111    1.00   0.02  0.00  0.00  0.00  0.98  0.00  0.00  0.16  0.00
  WS02006115WS02006116    1.00   0.02  0.00  0.00  0.97  0.00  0.00  0.01  0.00  0.00
  WS02006116WS02004401    1.00   0.02  0.00  0.00  0.98  0.00  0.00  0.00  0.00  0.00
  WS02006228WS02006109    1.00   0.00  0.00  0.00  1.00  0.00  0.00  0.00  0.00  0.00
  WS02006229WS02006228    1.00   0.00  0.00  0.00  0.99  0.00  0.00  0.01  0.00  0.00
  WS02006230WS02006229    1.00   0.00  0.00  0.00  0.99  0.00  0.00  0.01  0.01  0.00
  WS02006231WS02006230    1.00   0.00  0.00  0.00  0.36  0.00  0.63  0.00  0.00  0.00
  WS02006232WS02006231    1.00   0.00  0.00  0.00  0.99  0.00  0.01  0.00  0.00  0.00
  WS02006234WS02006232    1.00   0.00  0.00  0.00  1.00  0.00  0.00  0.00  0.10  0.00
  WS02006235WS02006234    1.00   0.00  0.00  0.00  0.83  0.00  0.17  0.00  0.00  0.00
  WS02006238WS02006235    1.00   0.00  0.00  0.00  1.00  0.00  0.00  0.00  0.00  0.00
  WS02006239WS02006238    1.00   0.00  0.00  0.00  1.00  0.00  0.00  0.00  0.22  0.00
  WS02006240WS02006239    1.00   0.00  0.00  0.00  0.69  0.00  0.00  0.31  0.03  0.00
  WS02006242WS02006240    1.00   0.00  0.00  0.00  1.00  0.00  0.00  0.00  0.00  0.00
  WS02006243WS02006242    1.00   0.00  0.00  0.00  0.99  0.00  0.00  0.00  0.41  0.00
  WS02006245WS02006243    1.00   0.00  0.00  0.00  0.75  0.00  0.00  0.25  0.02  0.00
  WS02006247WS02006245    1.00   0.00  0.00  0.00  0.97  0.00  0.00  0.02  0.00  0.00
  WS02006248WS02006247    1.00   0.00  0.00  0.00  0.99  0.00  0.00  0.01  0.22  0.00
  WS02006249WS02006248    1.00   0.00  0.00  0.00  0.56  0.00  0.44  0.00  0.00  0.00
  WS02006251WS02006249    1.00   0.00  0.00  0.00  1.00  0.00  0.00  0.00  0.44  0.00
  WS02006252WS02006251    1.00   0.01  0.46  0.00  0.14  0.00  0.39  0.00  0.00  0.00
  WS02006256WS02006235    1.00   0.00  0.00  0.00  0.99  0.01  0.00  0.00  0.00  0.00
  WSF200WS02003060        1.00   0.00  0.13  0.00  0.24  0.63  0.00  0.00  0.38  0.00
  YS02001580YS02001583    1.00   0.24  0.52  0.00  0.24  0.00  0.00  0.00  0.61  0.00
  YS02001583YS02001586    1.00   0.39  0.31  0.00  0.30  0.00  0.00  0.00  0.61  0.00
  YS02001586YS02001590    1.00   0.13  0.00  0.00  0.48  0.04  0.00  0.35  0.36  0.00
  YS02001590YS02001593    1.00   0.13  0.01  0.00  0.17  0.00  0.70  0.00  0.00  0.00
  YS02001593YS02001596    1.00   0.13  0.00  0.00  0.19  0.01  0.00  0.67  0.02  0.00
  YS02001596YS02001600    1.00   0.13  0.00  0.00  0.25  0.01  0.00  0.60  0.04  0.00
  YS02001600YS02001601    1.00   0.13  0.01  0.00  0.87  0.00  0.00  0.00  0.56  0.00
  YS02001601YS02001602    1.00   0.13  0.01  0.00  0.87  0.00  0.00  0.00  0.00  0.00
  YS02001602YS02001605    1.00   0.13  0.00  0.00  0.87  0.00  0.00  0.00  0.00  0.00
  YS02001605YS02001607    1.00   0.13  0.00  0.00  0.87  0.00  0.00  0.00  0.00  0.00
  YS02001607YS02001610    1.00   0.13  0.00  0.00  0.86  0.00  0.00  0.00  0.01  0.00
  YS02001610YS02001613    1.00   0.13  0.00  0.00  0.87  0.00  0.00  0.00  0.00  0.00
  YS02001613YS02001616    1.00   0.13  0.00  0.00  0.87  0.00  0.00  0.00  0.00  0.00
  YS02001616YS02001619    1.00   0.13  0.00  0.00  0.87  0.00  0.00  0.00  0.00  0.00
  YS02001619YS02001622    1.00   0.13  0.00  0.00  0.87  0.00  0.00  0.00  0.26  0.00
  YS02001622YS02001625    1.00   0.13  0.00  0.00  0.87  0.00  0.00  0.00  0.03  0.00
  YS02001625YS02001629    1.00   0.13  0.04  0.00  0.23  0.00  0.61  0.00  0.00  0.00
  YS02001629YS02163301    1.00   0.14  0.01  0.00  0.85  0.00  0.00  0.00  0.00  0.00
  YS02001633YS02163601    1.00   0.00  0.01  0.00  0.99  0.00  0.00  0.00  0.14  0.00
  YS02001641YS02001644    1.00   0.00  0.01  0.00  0.99  0.00  0.00  0.00  0.00  0.00
  YS02001644YS02001647    1.00   0.00  0.16  0.00  0.84  0.00  0.00  0.00  0.00  0.00
  YS02001647YS02001649    1.00   0.00  0.16  0.00  0.58  0.26  0.00  0.00  0.54  0.00
  YS02001649YS02001757    1.00   0.00  0.00  0.00  0.84  0.16  0.00  0.00  0.38  0.00
  YS02001652YS02001649    1.00   0.00  0.00  0.00  0.97  0.03  0.00  0.00  0.68  0.00
  YS02001655YS02001652    1.00   0.00  0.00  0.00  0.25  0.01  0.00  0.74  0.05  0.00
  YS02001658YS02001655    1.00   0.00  0.14  0.00  0.71  0.15  0.00  0.00  0.63  0.00
  YS02001661YS02001658    1.00   0.14  0.00  0.00  0.55  0.31  0.00  0.00  0.64  0.00
  YS02001664YS02001661    1.00   0.13  0.00  0.00  0.79  0.09  0.00  0.00  0.82  0.00
  YS02001745YS02001748    1.00   0.00  0.00  0.00  0.16  0.00  0.00  0.84  0.04  0.00
  YS02001748YS02001751    1.00   0.00  0.00  0.00  0.87  0.13  0.00  0.00  0.70  0.00
  YS02001751YS02001754    1.00   0.00  0.00  0.00  0.22  0.01  0.00  0.77  0.03  0.00
  YS02001754YS02001757    1.00   0.00  0.00  0.00  1.00  0.00  0.00  0.00  0.75  0.00
  YS02001757CaochengTiaoxuchi    1.00   0.00  0.00  0.00  1.00  0.00  0.00  0.00  0.61  0.00
  YS02001759YS02001757    1.00   0.00  0.00  0.00  0.98  0.02  0.00  0.00  0.48  0.00
  YS02001762YS02001759    1.00   0.00  0.00  0.00  1.00  0.00  0.00  0.00  0.04  0.00
  YS02001765YS02001762    1.00   0.00  0.00  0.00  1.00  0.00  0.00  0.00  0.61  0.00
  YS02001767YS02001765    1.00   0.00  0.00  0.00  1.00  0.00  0.00  0.00  0.01  0.00
  YS02001770YS02001767    1.00   0.00  0.00  0.00  1.00  0.00  0.00  0.00  0.00  0.00
  YS02001774YS02001770    1.00   0.00  0.13  0.00  0.72  0.00  0.15  0.00  0.02  0.00
  YS02001779YS02001774    1.00   0.00  0.00  0.00  1.00  0.00  0.00  0.00  0.70  0.00
  YS02001783YS02001784    1.00   0.00  0.16  0.00  0.84  0.00  0.00  0.00  0.54  0.00
  YS02001784YS02001785    1.00   0.00  0.00  0.00  1.00  0.00  0.00  0.00  0.15  0.00
  YS02001786YS02001788    1.00   0.00  0.00  0.00  0.80  0.20  0.00  0.00  0.00  0.00
  YS02001788YS02001790    1.00   0.00  0.00  0.00  0.22  0.78  0.00  0.00  0.77  0.00
  YS02001790YS02001791    1.00   0.00  0.00  0.00  0.01  0.99  0.00  0.00  0.15  0.00
  YS02001791YS02001793    1.00   0.00  0.00  0.00  0.00  1.00  0.00  0.00  0.02  0.00
  YS02001793JiankangQianchi    1.00   0.00  0.00  0.00  0.98  0.02  0.00  0.00  0.92  0.00
  YS02001882YS02001884    1.00   0.14  0.01  0.00  0.85  0.00  0.00  0.00  0.00  0.00
  YS02001884YS02001887    1.00   0.06  0.05  0.00  0.89  0.00  0.00  0.00  0.00  0.00
  YS02001887YS02001890    1.00   0.00  0.00  0.00  0.97  0.00  0.03  0.00  0.00  0.00
  YS02001890YS02001895    1.00   0.00  0.15  0.00  0.85  0.00  0.00  0.00  0.00  0.00
  YS02001895YS02001898    1.00   0.15  0.00  0.00  0.83  0.00  0.01  0.00  0.00  0.00
  YS02001898YS02001901    1.00   0.15  0.00  0.00  0.85  0.00  0.00  0.00  0.01  0.00
  YS02001901YS02001904    1.00   0.15  0.00  0.00  0.85  0.00  0.00  0.00  0.00  0.00
  YS02001904YS02001907    1.00   0.00  0.15  0.00  0.85  0.00  0.00  0.00  0.00  0.00
  YS02001907YS02006553    1.00   0.00  0.02  0.00  0.98  0.00  0.00  0.00  0.00  0.00
  YS02001910YS02001907    1.00   0.00  0.00  0.00  0.97  0.00  0.00  0.03  0.11  0.00
  YS02001915YS02001910    1.00   0.00  0.00  0.00  0.97  0.03  0.00  0.00  0.13  0.00
  YS02001918YS02001915    1.00   0.00  0.01  0.00  0.98  0.02  0.00  0.00  0.69  0.00
  YS02001920YS02001918    1.00   0.00  0.01  0.00  0.99  0.00  0.00  0.00  0.00  0.00
  YS02001923YS02001920    1.00   0.00  0.00  0.00  1.00  0.00  0.00  0.00  0.88  0.00
  YS02001926YS02001923    1.00   0.00  0.07  0.00  0.10  0.00  0.83  0.00  0.00  0.00
  YS02001929YS02001926    1.00   0.00  0.13  0.00  0.87  0.00  0.00  0.00  0.79  0.00
  YS02006553YS02006556    1.00   0.01  0.00  0.00  0.99  0.00  0.00  0.00  0.03  0.00
  YS02006556YS02006558    1.00   0.00  0.00  0.00  1.00  0.00  0.00  0.00  0.00  0.00
  YS02006558YS02006561    1.00   0.16  0.00  0.00  0.09  0.75  0.00  0.00  0.16  0.00
  YS02006561YS02001783    1.00   0.16  0.00  0.00  0.14  0.70  0.00  0.00  0.65  0.00
  YS02163301YS02001633    1.00   0.00  0.14  0.00  0.86  0.00  0.00  0.00  0.00  0.00
  YS02163601YS02164001    1.00   0.00  0.08  0.00  0.92  0.00  0.00  0.00  0.00  0.00
  YS02164001YS02001641    1.00   0.01  0.07  0.00  0.92  0.00  0.00  0.00  0.05  0.00
  
  
  *************************
  Conduit Surcharge Summary
  *************************
  
  ----------------------------------------------------------------------------
                                                           Hours        Hours 
                         --------- Hours Full --------   Above Full   Capacity
  Conduit                Both Ends  Upstream  Dnstream   Normal Flow   Limited
  ----------------------------------------------------------------------------
  WS02003072WS02003073        0.01      0.01      0.01      1.45         0.01
  WS02004403WS02004404        0.01      0.01      0.01      0.01         0.01
  WS02004404WS02004405        0.01      0.01      0.01      4.37         0.01
  WS02004405WS02004406        0.01      0.01      0.01      0.91         0.01
  WS02006109WS02006110        0.81      0.81      2.62      1.00         0.01
  WS02006110WS02006113        0.01      0.01      2.53      0.01         0.01
  WS02006111WS02006112        0.01      0.01      3.23      0.01         0.01
  WS02006112WS02006115        0.01      0.01      1.17      0.01         0.01
  WS02006228WS02006109        2.47      2.62      2.47      3.34         2.47
  WS02006229WS02006228        2.46      2.48      2.46      3.06         2.45
  WS02006230WS02006229        2.80      3.00      2.80      4.88         2.80
  WS02006231WS02006230        0.84      0.84      1.10      4.61         0.01
  WS02006232WS02006231        1.03      1.03      2.62      1.11         0.01
  WS02006234WS02006232        2.36      2.36      2.62      1.09         1.08
  WS02006235WS02006234        1.40      1.41      2.42      4.53         0.02
  WS02006238WS02006235        2.45      2.45      2.65      0.01         0.01
  WS02006239WS02006238        2.52      2.60      2.52      2.91         2.25
  WS02006240WS02006239        2.46      2.52      2.46      2.90         2.12
  WS02006242WS02006240        2.50      2.50      2.79      3.13         0.01
  WS02006243WS02006242        2.54      2.54      2.70      0.01         0.07
  WS02006245WS02006243        2.51      2.53      2.52      1.99         1.70
  WS02006247WS02006245        2.51      2.57      2.51      4.22         2.49
  WS02006248WS02006247        2.51      2.51      2.55      0.01         0.07
  WS02006249WS02006248        2.49      2.49      2.53      4.21         0.01
  WS02006251WS02006249        2.52      2.54      2.53      2.96         2.43
  WS02006252WS02006251        3.01      3.01      3.02      3.02         0.01
  WS02006256WS02006235        4.52      4.57      6.10      1.40         0.01
  YS02001580YS02001583        1.00      1.00      1.06      0.01         0.01
  YS02001583YS02001586        1.01      1.01      1.14      0.01         0.01
  YS02001586YS02001590        1.14      1.14      1.22      0.01         0.01
  YS02001590YS02001593        1.22      1.22      1.24      1.21         0.01
  YS02001593YS02001596        1.23      1.23      1.35      0.01         0.01
  YS02001596YS02001600        1.42      1.42      1.54      0.01         0.01
  YS02001600YS02001601        1.60      1.60      1.89      0.01         0.01
  YS02001601YS02001602        1.79      1.79      1.92      1.53         0.01
  YS02001602YS02001605        1.73      1.73      1.79      2.65         0.01
  YS02001605YS02001607        1.69      1.73      1.70      1.80         1.64
  YS02001607YS02001610        1.22      1.22      1.25      0.01         0.01
  YS02001610YS02001613        1.21      1.21      1.25      0.01         0.01
  YS02001613YS02001616        1.17      1.17      1.21      0.01         0.01
  YS02001616YS02001619        1.15      1.15      1.17      0.19         0.13
  YS02001619YS02001622        1.15      1.15      1.15      1.19         1.05
  YS02001622YS02001625        1.15      1.15      1.35      0.01         0.01
  YS02001625YS02001629        1.08      1.08      1.35      0.01         0.01
  YS02001629YS02163301        1.36      1.36      1.37      0.19         0.15
  YS02001633YS02163601        1.40      1.40      1.46      0.20         0.22
  YS02001641YS02001644        1.31      1.34      1.31      1.97         1.27
  YS02001644YS02001647        1.08      1.08      1.31      0.01         0.01
  YS02001647YS02001649        1.08      1.08      1.21      0.01         0.01
  YS02001649YS02001757        1.21      1.21      1.29      0.07         0.06
  YS02001652YS02001649        1.05      1.05      1.21      0.01         0.01
  YS02001655YS02001652        0.91      0.91      1.04      0.01         0.01
  YS02001658YS02001655        0.56      0.56      0.91      0.01         0.01
  YS02001661YS02001658        0.21      0.21      0.56      0.01         0.01
  YS02001664YS02001661        0.04      0.04      0.27      0.01         0.01
  YS02001745YS02001748        0.06      0.06      0.45      0.01         0.01
  YS02001748YS02001751        0.51      0.51      0.78      0.01         0.01
  YS02001751YS02001754        0.78      0.78      0.98      0.01         0.01
  YS02001754YS02001757        1.00      1.00      1.29      0.01         0.01
  YS02001757CaochengTiaoxuchi        1.29      1.29      2.33      0.54         0.55
  YS02001759YS02001757        1.20      1.20      1.29      0.01         0.01
  YS02001762YS02001759        1.17      1.17      1.20      0.01         0.01
  YS02001765YS02001762        1.13      1.13      1.17      0.01         0.01
  YS02001767YS02001765        1.11      1.11      1.13      0.01         0.01
  YS02001770YS02001767        1.10      1.11      1.11      0.69         0.62
  YS02001774YS02001770        1.07      1.07      1.16      0.01         0.01
  YS02001779YS02001774        0.97      0.97      1.16      0.01         0.01
  YS02001783YS02001784        0.81      0.84      0.81      1.06         0.81
  YS02001784YS02001785        0.67      0.81      0.67      1.38         0.67
  YS02001786YS02001788        0.01      0.67      0.01      1.25         0.01
  YS02001790YS02001791        0.01      0.01      0.01      0.79         0.01
  YS02001793JiankangQianchi        0.01      0.01      7.39      0.01         0.01
  YS02001882YS02001884        0.77      0.77      0.78      0.01         0.01
  YS02001884YS02001887        0.81      0.81      0.83      0.01         0.01
  YS02001887YS02001890        0.85      0.85      0.86      0.26         0.01
  YS02001890YS02001895        0.75      0.75      0.89      0.01         0.01
  YS02001895YS02001898        0.75      0.75      0.75      0.01         0.01
  YS02001898YS02001901        0.76      0.76      0.81      0.01         0.01
  YS02001901YS02001904        0.80      0.80      0.81      0.01         0.01
  YS02001904YS02001907        0.80      0.80      1.22      0.01         0.01
  YS02001907YS02006553        1.40      1.40      1.47      0.01         0.01
  YS02001910YS02001907        0.88      0.88      1.19      0.14         0.14
  YS02001915YS02001910        0.77      0.77      0.88      0.01         0.02
  YS02001918YS02001915        0.66      0.66      0.77      0.01         0.01
  YS02001920YS02001918        0.66      0.66      0.67      0.01         0.01
  YS02001923YS02001920        0.61      0.61      0.67      0.01         0.01
  YS02001926YS02001923        0.28      0.28      0.31      0.09         0.01
  YS02001929YS02001926        0.16      0.16      0.31      0.01         0.01
  YS02006553YS02006556        1.01      1.01      1.21      0.01         0.01
  YS02006556YS02006558        1.13      1.13      1.24      0.01         0.01
  YS02006558YS02006561        0.70      1.00      0.70      1.34         0.70
  YS02006561YS02001783        0.62      0.62      0.84      0.01         0.01
  YS02163301YS02001633        1.37      1.37      1.43      0.01         0.01
  YS02163601YS02164001        1.34      1.34      1.46      0.12         0.01
  YS02164001YS02001641        1.33      1.34      1.34      0.78         0.68
  
  
  ***************
  Pumping Summary
  ***************
  
  ---------------------------------------------------------------------------------------------------------
                                                  Min       Avg       Max     Total     Power    % Time Off
                        Percent   Number of      Flow      Flow      Flow    Volume     Usage    Pump Curve
  Pump                 Utilized   Start-Ups       LPS       LPS       LPS  10^6 ltr     Kw-hr    Low   High
  ---------------------------------------------------------------------------------------------------------
  CC-R1                   23.43           4      0.00    683.00    683.00     4.608     89.16    0.0   24.1
  CC-R2                   21.94           4      0.00    683.00    683.00     4.316     83.72    0.0   26.5
  CC-S1                   53.15           6      0.00    200.00    200.00     3.061     17.35    0.0    7.1
  CC-S2                   37.69           7      0.00    200.00    200.00     2.171     11.91    0.0   10.0
  JK-R1                    9.35          15      0.00   1000.00   1000.00     2.693     31.22    0.0    0.0
  JK-R2                    4.39           6      0.00   1000.00   1000.00     1.263     13.90    0.0    0.0
  JK-S                    17.45          21      0.00    300.00    300.00     1.508     20.98    0.0    0.0
  

  Analysis begun on:  Mon Apr 14 21:00:26 2025
  Analysis ended on:  Mon Apr 14 21:00:28 2025
  Total elapsed time: 00:00:02