
  EPA STORM WATER MANAGEMENT MODEL - VERSION 5.2 (Build 5.2.4)
  PYSWMM TOOLKIT API - VERSION v1.0 (2023-11-27)
  ------------------------------------------------------------

  WARNING 04: minimum elevation drop used for Conduit WS02004404WS02004405
  WARNING 03: negative offset ignored for Link YS02001904YS02001907
  
  ****************
  Analysis Options
  ****************
  Flow Units ............... LPS
  Process Models:
    Rainfall/Runoff ........ YES
    RDII ................... NO
    Snowmelt ............... NO
    Groundwater ............ NO
    Flow Routing ........... YES
    Ponding Allowed ........ NO
    Water Quality .......... NO
  Infiltration Method ...... HORTON
  Flow Routing Method ...... DYNWAVE
  Surcharge Method ......... EXTRAN
  Starting Date ............ 08/28/2015 08:00:00
  Ending Date .............. 08/28/2015 16:00:00
  Antecedent Dry Days ...... 8.0
  Report Time Step ......... 00:01:00
  Wet Time Step ............ 00:01:00
  Dry Time Step ............ 00:01:00
  Routing Time Step ........ 30.00 sec
  Variable Time Step ....... YES
  Maximum Trials ........... 8
  Number of Threads ........ 4
  Head Tolerance ........... 0.001500 m
  
  
  **************************        Volume         Depth
  Runoff Quantity Continuity     hectare-m            mm
  **************************     ---------       -------
  Total Precipitation ......         1.900        57.282
  Evaporation Loss .........         0.000         0.000
  Infiltration Loss ........         0.099         2.978
  Surface Runoff ...........         1.769        53.322
  Final Storage ............         0.033         0.995
  Continuity Error (%) .....        -0.022
  
  
  **************************        Volume        Volume
  Flow Routing Continuity        hectare-m      10^6 ltr
  **************************     ---------     ---------
  Dry Weather Inflow .......         0.025         0.251
  Wet Weather Inflow .......         1.769        17.686
  Groundwater Inflow .......         0.000         0.000
  RDII Inflow ..............         0.000         0.000
  External Inflow ..........         0.083         0.834
  External Outflow .........         1.429        14.285
  Flooding Loss ............         0.498         4.982
  Evaporation Loss .........         0.000         0.000
  Exfiltration Loss ........         0.000         0.000
  Initial Stored Volume ....         0.243         2.431
  Final Stored Volume ......         0.198         1.982
  Continuity Error (%) .....        -0.225
  
  
  *************************
  Highest Continuity Errors
  *************************
  Node YS02001884 (5.24%)
  Node YS02001583 (-4.11%)
  
  
  ***************************
  Time-Step Critical Elements
  ***************************
  Link WS02006252WS02006251 (51.47%)
  Link WS02006238WS02006235 (12.58%)
  Link WS02004404WS02004405 (10.87%)
  Link YS02001791YS02001793 (7.46%)
  Link WS02006235WS02006234 (7.09%)
  
  
  ********************************
  Highest Flow Instability Indexes
  ********************************
  Link WS02006113WS02006111 (53)
  Link WS02006111WS02006112 (23)
  Link WS02006238WS02006235 (12)
  Link WS02006256WS02006235 (12)
  Link WS02006252WS02006251 (12)
  
  
  *********************************
  Most Frequent Nonconverging Nodes
  *********************************
  Node CC-1 (8.76%)
  Node CC-2 (8.76%)
  Node JK-1 (8.76%)
  Node JK-2 (8.76%)
  Node WSC (8.76%)
  
  
  *************************
  Routing Time Step Summary
  *************************
  Minimum Time Step           :     0.02 sec
  Average Time Step           :     1.84 sec
  Maximum Time Step           :     7.04 sec
  % of Time in Steady State   :     0.00
  Average Iterations per Step :     2.80
  % of Steps Not Converging   :     8.76
  Time Step Frequencies       :
     30.000 - 13.228 sec      :     0.00 %
     13.228 -  5.833 sec      :     8.68 %
      5.833 -  2.572 sec      :    16.97 %
      2.572 -  1.134 sec      :    18.03 %
      1.134 -  0.500 sec      :    56.32 %
  
  
  ***************************
  Subcatchment Runoff Summary
  ***************************
  
  ------------------------------------------------------------------------------------------------------------------------------
                            Total      Total      Total      Total     Imperv       Perv      Total       Total     Peak  Runoff
                           Precip      Runon       Evap      Infil     Runoff     Runoff     Runoff      Runoff   Runoff   Coeff
  Subcatchment                 mm         mm         mm         mm         mm         mm         mm    10^6 ltr      LPS
  ------------------------------------------------------------------------------------------------------------------------------
  sub60                     57.28       0.00       0.00       1.78      49.20       5.09      54.30        0.71   509.23   0.948
  sub61                     57.28       0.00       0.00       2.59      46.41       7.16      53.57        0.98   707.38   0.935
  sub62                     57.28       0.00       0.00       1.19      51.41       3.40      54.81        1.50   989.92   0.957
  sub63                     57.28       0.00       0.00       4.79      39.70      11.82      51.52        1.17   790.65   0.899
  sub64                     57.28       0.00       0.00       2.42      47.48       6.18      53.66        1.29   809.38   0.937
  sub65                     57.28       0.00       0.00       2.09      48.58       5.36      53.94        1.48   903.77   0.942
  sub66                     57.28       0.00       0.00       5.95      39.59      10.67      50.26        2.34  1178.22   0.877
  sub67                     57.28       0.00       0.00       1.14      51.45       3.44      54.90        1.02   769.90   0.958
  sub68                     57.28       0.00       0.00       2.14      48.07       5.88      53.95        1.48  1012.92   0.942
  sub69                     57.28       0.00       0.00       1.91      48.58       6.68      55.26        2.05  1201.55   0.965
  sub70                     57.28       0.00       0.00       6.40      37.64      13.08      50.72        1.47   660.88   0.885
  sub71                     57.28       0.00       0.00       1.22      51.37       3.36      54.74        1.43   874.94   0.956
  sub72                     57.28       0.00       0.00       1.09      51.87       2.92      54.79        0.75   421.38   0.957
  
  
  ******************
  Node Depth Summary
  ******************
  
  ---------------------------------------------------------------------------------
                                 Average  Maximum  Maximum  Time of Max    Reported
                                   Depth    Depth      HGL   Occurrence   Max Depth
  Node                 Type       Meters   Meters   Meters  days hr:min      Meters
  ---------------------------------------------------------------------------------
  WS02003060           JUNCTION     0.25     0.38     5.32     0  02:28        0.38
  WS02003066           JUNCTION     0.21     0.30     5.85     0  02:27        0.30
  WS02003067           JUNCTION     0.52     0.70     6.02     0  02:27        0.70
  WS02003069           JUNCTION     0.28     0.43     5.01     0  02:28        0.43
  WS02003072           JUNCTION     0.34     0.50     4.87     0  02:29        0.50
  WS02003073           JUNCTION     0.20     0.30     4.36     0  02:29        0.30
  WS02004401           JUNCTION     0.61     0.85     6.85     0  02:25        0.85
  WS02004402           JUNCTION     0.64     0.88     6.84     0  02:24        0.88
  WS02004403           JUNCTION     0.66     0.89     6.82     0  02:25        0.89
  WS02004404           JUNCTION     0.74     0.96     6.81     0  02:25        0.96
  WS02004405           JUNCTION     0.74     0.96     6.81     0  02:25        0.96
  WS02004406           JUNCTION     0.75     0.96     6.79     0  02:25        0.96
  WS02004407           JUNCTION     0.19     0.30     6.61     0  02:25        0.30
  WS02004409           JUNCTION     0.42     0.67     6.44     0  02:26        0.67
  WS02004410           JUNCTION     0.44     0.68     6.40     0  02:27        0.68
  WS02004411           JUNCTION     0.46     0.69     6.37     0  02:27        0.69
  WS02004412           JUNCTION     0.48     0.70     6.34     0  02:27        0.70
  WS02004413           JUNCTION     0.64     0.86     6.33     0  02:27        0.86
  WS02006109           JUNCTION     0.68     1.53     8.14     0  02:44        1.29
  WS02006110           JUNCTION     0.68     1.74     8.33     0  02:44        1.07
  WS02006111           JUNCTION     0.19     0.29     6.99     0  02:40        0.29
  WS02006112           JUNCTION     0.77     1.07     6.95     0  02:47        1.06
  WS02006113           JUNCTION     0.29     0.46     7.35     0  02:58        0.46
  WS02006115           JUNCTION     0.49     0.75     6.89     0  02:25        0.75
  WS02006116           JUNCTION     0.58     0.83     6.87     0  02:25        0.83
  WS02006228           JUNCTION     0.67     1.36     8.01     0  02:47        1.23
  WS02006229           JUNCTION     0.64     1.41     8.10     0  02:47        1.09
  WS02006230           JUNCTION     0.64     1.73     8.48     0  02:47        1.16
  WS02006231           JUNCTION     0.44     1.31     8.44     0  02:47        0.98
  WS02006232           JUNCTION     0.57     1.54     8.58     0  02:25        1.14
  WS02006234           JUNCTION     0.49     1.83     8.99     0  02:25        1.21
  WS02006235           JUNCTION     0.53     1.84     9.01     0  02:25        1.34
  WS02006238           JUNCTION     0.56     1.90     9.05     0  02:25        1.38
  WS02006239           JUNCTION     0.53     1.79     9.00     0  02:25        1.38
  WS02006240           JUNCTION     0.49     1.69     8.98     0  02:25        1.35
  WS02006242           JUNCTION     0.56     1.55     8.82     0  02:25        1.41
  WS02006243           JUNCTION     0.47     1.40     8.82     0  02:25        1.28
  WS02006245           JUNCTION     0.46     1.29     8.77     0  02:25        1.22
  WS02006247           JUNCTION     0.49     1.23     8.73     0  02:25        1.20
  WS02006248           JUNCTION     0.44     1.10     8.69     0  02:25        1.10
  WS02006249           JUNCTION     0.47     1.09     8.69     0  02:08        1.09
  WS02006251           JUNCTION     0.47     1.52     9.19     0  02:08        1.23
  WS02006252           JUNCTION     0.35     1.50     9.74     0  00:00        0.78
  WS02006256           JUNCTION     0.95     2.35     9.28     0  00:00        2.35
  WSF200               JUNCTION     0.18     0.29     5.52     0  02:27        0.29
  YS02001580           JUNCTION     0.06     1.05     9.59     0  02:05        0.77
  YS02001583           JUNCTION     0.10     1.05     9.54     0  02:05        0.82
  YS02001586           JUNCTION     0.15     1.13     9.30     0  02:05        1.13
  YS02001590           JUNCTION     0.24     1.40     9.26     0  02:05        1.37
  YS02001593           JUNCTION     0.18     1.31     9.17     0  02:05        1.28
  YS02001596           JUNCTION     0.24     1.68     9.10     0  02:06        1.65
  YS02001600           JUNCTION     0.29     1.87     9.00     0  02:05        1.86
  YS02001601           JUNCTION     0.48     2.06     8.90     0  02:03        2.06
  YS02001602           JUNCTION     0.39     1.87     8.77     0  02:04        1.87
  YS02001605           JUNCTION     0.37     1.78     8.68     0  02:04        1.78
  YS02001607           JUNCTION     0.37     1.65     8.50     0  02:18        1.65
  YS02001610           JUNCTION     0.42     1.68     8.48     0  02:04        1.68
  YS02001613           JUNCTION     0.37     1.70     8.54     0  02:04        1.66
  YS02001616           JUNCTION     0.30     1.61     8.52     0  02:04        1.59
  YS02001619           JUNCTION     0.28     1.61     8.54     0  02:04        1.59
  YS02001622           JUNCTION     0.27     1.56     8.47     0  02:12        1.56
  YS02001625           JUNCTION     0.55     1.78     8.38     0  02:07        1.78
  YS02001629           JUNCTION     0.38     1.85     8.40     0  02:08        1.85
  YS02001633           JUNCTION     0.46     2.01     8.46     0  02:09        2.00
  YS02001641           JUNCTION     0.45     1.95     8.39     0  02:09        1.94
  YS02001644           JUNCTION     0.45     1.92     8.35     0  02:09        1.92
  YS02001647           JUNCTION     0.24     1.76     8.37     0  02:09        1.73
  YS02001649           JUNCTION     0.28     2.02     8.41     0  02:10        1.94
  YS02001652           JUNCTION     0.18     1.86     8.46     0  02:10        1.77
  YS02001655           JUNCTION     0.14     1.75     8.60     0  02:09        1.55
  YS02001658           JUNCTION     0.10     1.68     8.82     0  02:09        1.29
  YS02001661           JUNCTION     0.13     1.52     8.92     0  02:10        1.07
  YS02001664           JUNCTION     0.04     0.56     8.49     0  02:10        0.50
  YS02001745           JUNCTION     0.05     0.78     8.30     0  02:12        0.77
  YS02001748           JUNCTION     0.09     1.97     9.05     0  02:10        1.20
  YS02001751           JUNCTION     0.12     1.87     8.75     0  02:10        1.39
  YS02001754           JUNCTION     0.16     2.12     8.73     0  02:10        1.65
  YS02001757           JUNCTION     0.30     2.19     8.45     0  02:10        1.99
  YS02001759           JUNCTION     0.24     2.05     8.42     0  02:10        1.96
  YS02001762           JUNCTION     0.23     1.96     8.36     0  02:10        1.94
  YS02001765           JUNCTION     0.22     1.93     8.38     0  02:10        1.91
  YS02001767           JUNCTION     0.21     1.89     8.38     0  02:12        1.89
  YS02001770           JUNCTION     0.22     1.95     8.44     0  02:08        1.92
  YS02001774           JUNCTION     0.29     1.98     8.40     0  02:10        1.98
  YS02001779           JUNCTION     0.14     1.68     8.37     0  02:08        1.68
  YS02001783           JUNCTION     0.20     1.29     7.43     0  02:08        1.23
  YS02001784           JUNCTION     0.21     1.16     7.23     0  02:08        1.11
  YS02001786           JUNCTION     0.18     0.90     6.93     0  02:08        0.87
  YS02001788           JUNCTION     0.13     0.62     6.60     0  02:13        0.62
  YS02001790           JUNCTION     0.15     0.73     6.37     0  02:13        0.71
  YS02001791           JUNCTION     0.10     0.44     5.91     0  02:14        0.43
  YS02001793           JUNCTION     0.05     0.30     5.14     0  02:15        0.28
  YS02001882           JUNCTION     0.25     1.65     8.36     0  02:08        1.64
  YS02001884           JUNCTION     0.35     1.74     8.36     0  02:12        1.74
  YS02001887           JUNCTION     0.43     1.82     8.36     0  02:11        1.82
  YS02001890           JUNCTION     0.46     1.81     8.32     0  02:08        1.81
  YS02001895           JUNCTION     0.22     1.57     8.31     0  02:12        1.56
  YS02001898           JUNCTION     0.23     1.56     8.30     0  02:10        1.56
  YS02001901           JUNCTION     0.35     1.68     8.29     0  02:09        1.67
  YS02001904           JUNCTION     0.33     1.64     8.27     0  02:18        1.64
  YS02001907           JUNCTION     0.66     1.96     8.25     0  02:08        1.96
  YS02001910           JUNCTION     0.45     1.96     8.46     0  02:09        1.86
  YS02001915           JUNCTION     0.25     1.90     8.62     0  02:09        1.75
  YS02001918           JUNCTION     0.13     1.81     8.88     0  02:09        1.43
  YS02001920           JUNCTION     0.20     2.11     9.12     0  02:09        1.51
  YS02001923           JUNCTION     0.09     2.03     9.29     0  02:09        1.26
  YS02001926           JUNCTION     0.13     1.90     9.35     0  02:09        1.09
  YS02001929           JUNCTION     0.07     1.78     9.47     0  02:09        0.86
  YS02006553           JUNCTION     0.66     1.98     8.26     0  02:13        1.97
  YS02006556           JUNCTION     0.63     1.95     8.26     0  02:11        1.95
  YS02006558           JUNCTION     0.67     2.00     8.27     0  02:11        2.00
  YS02006561           JUNCTION     0.12     0.97     7.63     0  02:08        0.90
  YS02163301           JUNCTION     0.40     1.91     8.43     0  02:10        1.91
  YS02163601           JUNCTION     0.50     2.03     8.43     0  02:09        2.02
  YS02164001           JUNCTION     0.44     1.95     8.41     0  02:09        1.94
  CC-1                 OUTFALL      0.00     0.00     0.00     0  00:00        0.00
  CC-2                 OUTFALL      0.00     0.00     0.00     0  00:00        0.00
  JK-1                 OUTFALL      0.00     0.00     0.00     0  00:00        0.00
  JK-2                 OUTFALL      0.00     0.00     0.00     0  00:00        0.00
  WSC                  OUTFALL      0.20     0.30     0.97     0  02:30        0.30
  CC-storage           STORAGE      0.86     1.69     7.19     0  02:36        1.69
  JK-storage           STORAGE      3.13     4.23     5.03     0  02:25        4.21
  
  
  *******************
  Node Inflow Summary
  *******************
  
  -------------------------------------------------------------------------------------------------
                                  Maximum  Maximum                  Lateral       Total        Flow
                                  Lateral    Total  Time of Max      Inflow      Inflow     Balance
                                   Inflow   Inflow   Occurrence      Volume      Volume       Error
  Node                 Type           LPS      LPS  days hr:min    10^6 ltr    10^6 ltr     Percent
  -------------------------------------------------------------------------------------------------
  WS02003060           JUNCTION     16.53   552.44     0  02:27       0.476         5.8       0.037
  WS02003066           JUNCTION      0.00   535.85     0  02:27           0        5.33       0.024
  WS02003067           JUNCTION      0.00   535.81     0  02:27           0        5.33       0.077
  WS02003069           JUNCTION      0.32   552.79     0  02:28     0.00922        5.81       0.064
  WS02003072           JUNCTION      0.00   552.71     0  02:28           0         5.8       0.114
  WS02003073           JUNCTION      1.82   554.45     0  02:29      0.0524        5.85       0.093
  WS02004401           JUNCTION      0.00   538.10     0  02:27           0        5.43       0.183
  WS02004402           JUNCTION      0.00   537.43     0  02:27           0        5.42       0.187
  WS02004403           JUNCTION      0.00   537.11     0  02:27           0        5.41       0.183
  WS02004404           JUNCTION      0.16   536.98     0  02:24     0.00467         5.4       0.153
  WS02004405           JUNCTION      0.04   536.88     0  02:26      0.0011         5.4       0.229
  WS02004406           JUNCTION      0.00   536.93     0  02:25           0        5.38       0.379
  WS02004407           JUNCTION      0.00   536.73     0  02:25           0        5.36       0.018
  WS02004409           JUNCTION      0.00   536.63     0  02:25           0        5.36       0.046
  WS02004410           JUNCTION      0.00   536.33     0  02:25           0        5.36       0.076
  WS02004411           JUNCTION      0.00   536.10     0  02:26           0        5.36       0.099
  WS02004412           JUNCTION      0.00   535.98     0  02:26           0        5.35       0.134
  WS02004413           JUNCTION      0.00   535.89     0  02:26           0        5.34       0.240
  WS02006109           JUNCTION      1.23   562.80     0  02:47      0.0354        5.48       0.184
  WS02006110           JUNCTION      0.00   562.74     0  02:47           0        5.47       0.114
  WS02006111           JUNCTION      0.00   561.69     0  02:49           0        5.46       0.011
  WS02006112           JUNCTION      0.00   542.54     0  02:30           0        5.46       0.319
  WS02006113           JUNCTION      0.00   569.27     0  02:44           0        5.46       0.031
  WS02006115           JUNCTION      0.00   552.00     0  02:45           0        5.44       0.115
  WS02006116           JUNCTION      0.00   541.61     0  02:49           0        5.43       0.102
  WS02006228           JUNCTION      0.00   561.60     0  02:47           0        5.44       0.068
  WS02006229           JUNCTION      0.00   560.93     0  02:47           0        5.45       0.081
  WS02006230           JUNCTION     10.28   592.81     0  02:25       0.296        5.45       0.062
  WS02006231           JUNCTION      0.00   573.59     0  02:35           0        5.15      -0.015
  WS02006232           JUNCTION      0.00   572.91     0  02:35           0        5.16       0.172
  WS02006234           JUNCTION      0.00   568.47     0  02:46           0        5.16      -0.160
  WS02006235           JUNCTION      0.00   562.90     0  02:46           0        5.23       0.146
  WS02006238           JUNCTION      0.00   425.19     0  02:40           0        4.44      -0.162
  WS02006239           JUNCTION      0.00   422.84     0  02:40           0         4.4      -0.157
  WS02006240           JUNCTION      0.00   419.49     0  03:03           0        4.37      -0.055
  WS02006242           JUNCTION      0.00   419.93     0  03:03           0        4.35      -0.026
  WS02006243           JUNCTION      0.00   419.64     0  03:03           0        4.33      -0.121
  WS02006245           JUNCTION      0.00   420.04     0  02:40           0        4.33       0.168
  WS02006247           JUNCTION      0.00   420.26     0  02:40           0        4.33      -0.030
  WS02006248           JUNCTION      0.00   421.34     0  02:30           0        4.33       0.026
  WS02006249           JUNCTION      0.00   459.02     0  00:00           0         4.5       0.133
  WS02006251           JUNCTION      0.08   408.33     0  02:08     0.00222         4.5       0.023
  WS02006252           JUNCTION      0.00   400.00     0  00:00           0         4.5      -0.092
  WS02006256           JUNCTION      0.00   300.00     0  00:00           0        1.17      -0.800
  WSF200               JUNCTION      0.00   535.87     0  02:27           0        5.32       0.007
  YS02001580           JUNCTION      0.00    98.09     0  02:05           0     0.00407      -3.618
  YS02001583           JUNCTION      0.00   148.78     0  02:04           0      0.0152      -3.949
  YS02001586           JUNCTION    660.88   660.91     0  02:15        1.47        1.48       0.082
  YS02001590           JUNCTION      0.00   318.05     0  02:18           0        1.21      -0.023
  YS02001593           JUNCTION      0.00   318.00     0  02:28           0        1.21       0.010
  YS02001596           JUNCTION      0.00   317.89     0  02:28           0        1.21      -0.003
  YS02001600           JUNCTION      0.00   317.98     0  02:28           0        1.21       0.013
  YS02001601           JUNCTION   1201.55  1519.07     0  02:14        2.05        3.26       0.028
  YS02001602           JUNCTION      0.00   511.08     0  02:04           0        2.12       0.024
  YS02001605           JUNCTION      0.00   511.18     0  02:04           0        2.02       0.024
  YS02001607           JUNCTION      0.00   511.19     0  02:04           0        2.02       0.099
  YS02001610           JUNCTION      0.00   620.40     0  02:15           0        2.15       0.117
  YS02001613           JUNCTION      0.00   521.28     0  02:04           0        1.76       0.101
  YS02001616           JUNCTION      0.00   525.89     0  02:04           0        1.76       0.029
  YS02001619           JUNCTION   1178.22  1178.22     0  02:15        2.34        3.97       0.005
  YS02001622           JUNCTION      0.00   924.30     0  02:13           0        3.84       0.003
  YS02001625           JUNCTION      0.00  1254.02     0  02:14           0        3.99       0.236
  YS02001629           JUNCTION      0.00   916.78     0  02:04           0        3.19       0.018
  YS02001633           JUNCTION    903.97  1347.87     0  02:07        1.49         4.5       0.078
  YS02001641           JUNCTION      0.00  1343.32     0  02:07           0        4.34       0.065
  YS02001644           JUNCTION    809.42  1735.55     0  02:07        1.29        5.62       0.058
  YS02001647           JUNCTION      0.00  1737.13     0  02:07           0        5.31       0.009
  YS02001649           JUNCTION      0.00  1915.01     0  02:06           0        6.48       0.003
  YS02001652           JUNCTION      0.00   818.20     0  02:14           0        1.18      -0.086
  YS02001655           JUNCTION      0.15   818.14     0  02:14     0.00443        1.17      -0.044
  YS02001658           JUNCTION      0.00   818.08     0  02:14           0        1.17      -0.033
  YS02001661           JUNCTION      0.00   839.96     0  02:13           0        1.17       0.027
  YS02001664           JUNCTION    790.65   790.65     0  02:13        1.17        1.17      -0.011
  YS02001745           JUNCTION    509.23   509.23     0  02:13       0.714       0.714       0.194
  YS02001748           JUNCTION      0.04   584.55     0  02:10      0.0013       0.714      -0.273
  YS02001751           JUNCTION      0.01   512.09     0  02:13    0.000317       0.723       0.110
  YS02001754           JUNCTION      0.26   512.90     0  02:13     0.00749       0.738      -0.203
  YS02001757           JUNCTION      0.00  3168.00     0  02:11           0        9.59       0.011
  YS02001759           JUNCTION    707.42  1297.87     0  02:13       0.984        2.38      -0.012
  YS02001762           JUNCTION      0.00   694.54     0  02:10           0        1.39      -0.018
  YS02001765           JUNCTION      0.00   695.91     0  02:10           0        1.39       0.003
  YS02001767           JUNCTION      0.54   696.98     0  02:10      0.0154        1.39       0.014
  YS02001770           JUNCTION    990.07   990.07     0  02:14        1.51        1.55      -0.020
  YS02001774           JUNCTION      0.00   436.72     0  02:14           0       0.193       0.649
  YS02001779           JUNCTION      0.01   437.06     0  02:14    0.000144       0.148      -0.800
  YS02001783           JUNCTION      0.00  1164.38     0  02:13           0        3.71       0.006
  YS02001784           JUNCTION      1.06  1166.15     0  02:13      0.0305        3.74       0.015
  YS02001786           JUNCTION      0.06  1165.63     0  02:13     0.00162        3.74       0.019
  YS02001788           JUNCTION      0.07  1166.36     0  02:13     0.00204        3.74       0.008
  YS02001790           JUNCTION      0.15  1178.83     0  02:12     0.00446        3.75       0.022
  YS02001791           JUNCTION      0.00  1296.79     0  02:14           0        3.75      -0.021
  YS02001793           JUNCTION      0.00  1250.00     0  02:12           0        3.75       0.003
  YS02001882           JUNCTION      0.00    35.52     0  02:06           0      0.0127       5.288
  YS02001884           JUNCTION      0.00    70.81     0  02:06           0      0.0486       5.529
  YS02001887           JUNCTION    770.35   771.15     0  02:13        1.03        1.07       0.416
  YS02001890           JUNCTION      0.00   770.78     0  02:13           0        1.03       0.501
  YS02001895           JUNCTION      0.00   517.13     0  02:16           0       0.956       0.153
  YS02001898           JUNCTION      0.00   517.62     0  02:17           0       0.954       0.028
  YS02001901           JUNCTION      0.00   517.73     0  02:17           0       0.957       0.340
  YS02001904           JUNCTION      0.00   517.56     0  02:17           0       0.961       0.287
  YS02001907           JUNCTION      0.00  1830.19     0  02:13           0        3.22       0.551
  YS02001910           JUNCTION      0.00  1315.80     0  02:13           0        2.27       0.318
  YS02001915           JUNCTION    874.96  1315.13     0  02:13        1.43        2.31       0.064
  YS02001918           JUNCTION      0.00   457.84     0  02:13           0         0.9      -0.020
  YS02001920           JUNCTION      2.87   458.24     0  02:13      0.0827       0.884       0.133
  YS02001923           JUNCTION      0.04   450.62     0  02:13     0.00109       0.785      -0.089
  YS02001926           JUNCTION      0.05   489.14     0  02:08      0.0015       0.764      -0.028
  YS02001929           JUNCTION    421.38   421.38     0  02:14       0.753       0.754      -0.092
  YS02006553           JUNCTION      0.00   801.88     0  02:28           0        2.25       0.529
  YS02006556           JUNCTION      0.00   802.49     0  02:28           0        2.25       0.358
  YS02006558           JUNCTION   1013.80  1164.35     0  02:12        1.51        3.74       0.091
  YS02006561           JUNCTION      0.00  1164.58     0  02:13           0        3.71      -0.000
  YS02163301           JUNCTION      0.00   917.45     0  02:07           0        3.18       0.051
  YS02163601           JUNCTION      0.11  1346.87     0  02:07     0.00317        4.33       0.110
  YS02164001           JUNCTION      0.00  1345.68     0  02:07           0        4.33       0.059
  CC-1                 OUTFALL       0.00   683.00     0  00:00           0        3.05       0.000
  CC-2                 OUTFALL       0.00   683.00     0  00:00           0        2.86       0.000
  JK-1                 OUTFALL       0.00  1000.00     0  00:00           0        2.15       0.000
  JK-2                 OUTFALL       0.00  1000.00     0  00:00           0       0.384       0.000
  WSC                  OUTFALL       0.00   554.29     0  02:30           0        5.84       0.000
  CC-storage           STORAGE       0.00  3167.16     0  02:11           0        11.8      -0.222
  JK-storage           STORAGE       0.00  1250.51     0  02:12           0         3.9       0.190
  
  
  **********************
  Node Surcharge Summary
  **********************
  
  Surcharging occurs when water rises above the top of the highest conduit.
  ---------------------------------------------------------------------
                                               Max. Height   Min. Depth
                                   Hours       Above Crown    Below Rim
  Node                 Type      Surcharged         Meters       Meters
  ---------------------------------------------------------------------
  WS02006109           JUNCTION        1.88          0.705        1.115
  WS02006110           JUNCTION        0.57          0.834        1.016
  WS02006112           JUNCTION        0.57          0.068        1.612
  WS02006228           JUNCTION        1.88          0.528        1.672
  WS02006229           JUNCTION        1.89          0.609        1.841
  WS02006230           JUNCTION        0.58          0.654        0.916
  WS02006231           JUNCTION        0.67          0.603        0.927
  WS02006232           JUNCTION        1.97          0.837        0.643
  WS02006234           JUNCTION        1.02          1.112        0.128
  WS02006235           JUNCTION        1.88          1.131        0.159
  WS02006238           JUNCTION        1.93          1.184        0.246
  WS02006239           JUNCTION        1.87          1.053        0.237
  WS02006240           JUNCTION        1.89          0.980        0.410
  WS02006242           JUNCTION        1.97          0.820        0.000
  WS02006243           JUNCTION        1.82          0.686        0.084
  WS02006245           JUNCTION        1.82          0.578        0.272
  WS02006247           JUNCTION        1.84          0.523        0.237
  WS02006248           JUNCTION        1.80          0.380        0.000
  WS02006249           JUNCTION        1.82          0.390        0.000
  WS02006251           JUNCTION        0.73          0.492        0.688
  WS02006252           JUNCTION        2.36          1.100        0.000
  WS02006256           JUNCTION        5.79          2.050        0.000
  YS02001580           JUNCTION        0.53          0.450        0.000
  YS02001583           JUNCTION        0.54          0.408        0.092
  YS02001586           JUNCTION        0.66          0.510        0.000
  YS02001590           JUNCTION        0.73          0.746        0.004
  YS02001593           JUNCTION        0.73          0.690        0.150
  YS02001596           JUNCTION        0.84          0.949        0.121
  YS02001600           JUNCTION        1.00          1.190        0.000
  YS02001601           JUNCTION        1.32          1.440        0.000
  YS02001602           JUNCTION        1.22          1.270        0.000
  YS02001605           JUNCTION        1.17          1.180        0.000
  YS02001607           JUNCTION        0.72          0.648        0.032
  YS02001610           JUNCTION        0.75          0.680        0.000
  YS02001613           JUNCTION        0.71          0.700        0.000
  YS02001616           JUNCTION        0.67          0.610        0.000
  YS02001619           JUNCTION        0.66          0.610        0.000
  YS02001622           JUNCTION        0.66          0.562        0.058
  YS02001625           JUNCTION        0.84          0.780        0.000
  YS02001629           JUNCTION        0.61          0.470        0.000
  YS02001633           JUNCTION        0.86          0.988        0.072
  YS02001641           JUNCTION        0.80          0.951        0.149
  YS02001644           JUNCTION        0.78          0.920        0.000
  YS02001647           JUNCTION        0.58          0.760        0.140
  YS02001649           JUNCTION        0.70          1.018        0.032
  YS02001652           JUNCTION        0.51          0.834        0.296
  YS02001655           JUNCTION        0.37          0.747        0.453
  YS02001658           JUNCTION        0.20          0.681        0.619
  YS02001661           JUNCTION        0.01          0.451        0.939
  YS02001748           JUNCTION        0.15          0.890        0.300
  YS02001751           JUNCTION        0.27          0.867        0.333
  YS02001754           JUNCTION        0.43          1.067        0.083
  YS02001757           JUNCTION        0.76          1.189        0.021
  YS02001759           JUNCTION        0.67          1.051        0.159
  YS02001762           JUNCTION        0.64          0.964        0.186
  YS02001765           JUNCTION        0.60          0.928        0.172
  YS02001767           JUNCTION        0.56          0.893        0.137
  YS02001770           JUNCTION        0.54          0.920        0.000
  YS02001774           JUNCTION        0.62          0.978        0.072
  YS02001779           JUNCTION        0.42          0.680        0.000
  YS02001783           JUNCTION        0.48          0.487        1.113
  YS02001784           JUNCTION        0.46          0.360        1.130
  YS02001786           JUNCTION        0.36          0.101        1.329
  YS02001882           JUNCTION        0.43          0.646        0.184
  YS02001884           JUNCTION        0.44          0.682        0.188
  YS02001887           JUNCTION        0.47          0.771        0.179
  YS02001890           JUNCTION        0.48          0.760        0.000
  YS02001895           JUNCTION        0.42          0.566        0.184
  YS02001898           JUNCTION        0.41          0.534        0.206
  YS02001901           JUNCTION        0.46          0.677        0.193
  YS02001904           JUNCTION        0.45          0.640        0.210
  YS02001907           JUNCTION        0.69          0.950        0.000
  YS02001910           JUNCTION        0.51          0.956        0.144
  YS02001915           JUNCTION        0.43          0.900        0.100
  YS02001918           JUNCTION        0.35          0.810        0.000
  YS02001920           JUNCTION        0.36          1.107        0.033
  YS02001923           JUNCTION        0.06          0.820        0.000
  YS02001926           JUNCTION        0.09          0.900        0.000
  YS02001929           JUNCTION        0.01          0.780        0.000
  YS02006553           JUNCTION        0.70          0.980        0.210
  YS02006556           JUNCTION        0.60          0.912        0.438
  YS02006558           JUNCTION        0.58          0.902        0.498
  YS02006561           JUNCTION        0.32          0.170        0.980
  YS02163301           JUNCTION        0.84          0.914        0.116
  YS02163601           JUNCTION        0.89          1.033        0.047
  YS02164001           JUNCTION        0.81          0.954        0.146
  
  
  *********************
  Node Flooding Summary
  *********************
  
  Flooding refers to all water that overflows a node, whether it ponds or not.
  --------------------------------------------------------------------------
                                                             Total   Maximum
                                 Maximum   Time of Max       Flood    Ponded
                        Hours       Rate    Occurrence      Volume     Depth
  Node                 Flooded       LPS   days hr:min    10^6 ltr    Meters
  --------------------------------------------------------------------------
  WS02006242              0.01     28.76      0  03:55       0.000     0.000
  WS02006248              0.01     20.29      0  02:25       0.000     0.000
  WS02006249              0.70    107.16      0  02:08       0.169     0.000
  WS02006252              0.01    245.63      0  00:00       0.000     0.000
  WS02006256              1.08    293.19      0  00:00       0.353     0.000
  YS02001580              0.01     82.88      0  02:05       0.000     0.000
  YS02001586              0.41    343.32      0  02:15       0.253     0.000
  YS02001600              0.01      3.27      0  02:06       0.000     0.000
  YS02001601              0.60   1121.09      0  02:14       1.137     0.000
  YS02001602              0.50     61.95      0  02:17       0.100     0.000
  YS02001605              0.01      2.52      0  02:04       0.000     0.000
  YS02001610              0.43    620.25      0  02:15       0.513     0.000
  YS02001613              0.01     10.53      0  02:04       0.000     0.000
  YS02001616              0.01     18.80      0  02:04       0.000     0.000
  YS02001619              0.01     21.56      0  02:04       0.000     0.000
  YS02001625              0.41   1253.78      0  02:14       0.960     0.000
  YS02001629              0.09    136.39      0  02:11       0.026     0.000
  YS02001644              0.17    844.20      0  02:14       0.303     0.000
  YS02001770              0.01     78.43      0  02:08       0.000     0.000
  YS02001779              0.15    436.88      0  02:14       0.130     0.000
  YS02001890              0.14    257.49      0  02:13       0.066     0.000
  YS02001907              0.29   1681.22      0  02:13       0.967     0.000
  YS02001918              0.01    128.76      0  02:09       0.001     0.000
  YS02001923              0.01    107.33      0  02:09       0.000     0.000
  YS02001926              0.01     47.69      0  02:09       0.000     0.000
  YS02001929              0.01    236.59      0  02:09       0.001     0.000
  
  
  **********************
  Storage Volume Summary
  **********************
  
  ------------------------------------------------------------------------------------------------
                         Average    Avg   Evap  Exfil     Maximum    Max    Time of Max    Maximum
                          Volume   Pcnt   Pcnt   Pcnt      Volume   Pcnt     Occurrence    Outflow
  Storage Unit           1000 m³   Full   Loss   Loss     1000 m³   Full    days hr:min        LPS
  ------------------------------------------------------------------------------------------------
  CC-storage               2.391   37.3    0.0    0.0       4.717   73.6       0  02:36    1783.53
  JK-storage               0.157   54.0    0.0    0.0       0.212   72.9       0  02:25    2300.00
  
  
  ***********************
  Outfall Loading Summary
  ***********************
  
  -----------------------------------------------------------
                         Flow       Avg       Max       Total
                         Freq      Flow      Flow      Volume
  Outfall Node           Pcnt       LPS       LPS    10^6 ltr
  -----------------------------------------------------------
  CC-1                  14.97    683.00    683.00       3.051
  CC-2                  13.97    683.00    683.00       2.856
  JK-1                   8.49   1000.00   1000.00       2.150
  JK-2                   1.30   1000.00   1000.00       0.384
  WSC                   99.96    274.92    554.29       5.844
  -----------------------------------------------------------
  System                27.74   3640.92   3920.29      14.285
  
  
  ********************
  Link Flow Summary
  ********************
  
  -----------------------------------------------------------------------------
                                 Maximum  Time of Max   Maximum    Max/    Max/
                                  |Flow|   Occurrence   |Veloc|    Full    Full
  Link                 Type          LPS  days hr:min     m/sec    Flow   Depth
  -----------------------------------------------------------------------------
  1                    CONDUIT    554.29     0  02:30      2.83    0.19    0.30
  WS02003060WS02003069 CONDUIT    552.47     0  02:28      1.64    0.22    0.34
  WS02003066WSF200     CONDUIT    535.87     0  02:27      2.85    0.09    0.22
  WS02003067WS02003066 CONDUIT    535.85     0  02:27      1.21    0.17    0.42
  WS02003069WS02003072 CONDUIT    552.71     0  02:28      1.37    0.27    0.39
  WS02003072WS02003073 CONDUIT    552.62     0  02:29      1.43    1.19    0.37
  WS02004401WS02004402 CONDUIT    537.43     0  02:27      0.98    0.65    0.86
  WS02004402WS02004403 CONDUIT    537.11     0  02:27      0.97    0.77    0.88
  WS02004403WS02004404 CONDUIT    536.82     0  02:24      0.92    0.39    0.93
  WS02004404WS02004405 CONDUIT    536.84     0  02:26      1.08    5.26    0.96
  WS02004405WS02004406 CONDUIT    536.93     0  02:25      0.99    1.06    0.96
  WS02004406WS02004407 CONDUIT    536.73     0  02:25      1.04    0.24    0.63
  WS02004407WS02004409 CONDUIT    536.63     0  02:25      1.54    0.19    0.48
  WS02004409WS02004410 CONDUIT    536.33     0  02:25      1.01    0.69    0.67
  WS02004410WS02004411 CONDUIT    536.10     0  02:26      0.95    0.73    0.69
  WS02004411WS02004412 CONDUIT    535.98     0  02:26      0.92    0.76    0.69
  WS02004412WS02004413 CONDUIT    535.89     0  02:26      0.82    0.36    0.78
  WS02004413WS02003067 CONDUIT    535.81     0  02:27      1.11    0.23    0.59
  WS02006109WS02006110 CONDUIT    562.74     0  02:47      1.12    1.08    1.00
  WS02006110WS02006113 CONDUIT    569.27     0  02:44      1.38    0.52    0.78
  WS02006111WS02006112 CONDUIT    542.54     0  02:30      1.81    0.26    0.67
  WS02006112WS02006115 CONDUIT    552.00     0  02:45      0.83    0.33    0.87
  WS02006113WS02006111 CONDUIT    561.69     0  02:49      2.47    0.67    0.46
  WS02006115WS02006116 CONDUIT    541.61     0  02:49      1.02    0.70    0.76
  WS02006116WS02004401 CONDUIT    538.10     0  02:27      0.98    0.74    0.84
  WS02006228WS02006109 CONDUIT    561.57     0  02:47      1.12    2.45    1.00
  WS02006229WS02006228 CONDUIT    561.60     0  02:47      1.14    1.86    1.00
  WS02006230WS02006229 CONDUIT    560.93     0  02:47      1.46   12.48    1.00
  WS02006231WS02006230 CONDUIT    582.53     0  02:25      1.58    8.84    1.00
  WS02006232WS02006231 CONDUIT    573.59     0  02:35      1.50    1.20    1.00
  WS02006234WS02006232 CONDUIT    572.91     0  02:35      1.49    1.16    1.00
  WS02006235WS02006234 CONDUIT    568.47     0  02:46      1.48    6.00    1.00
  WS02006238WS02006235 CONDUIT    424.70     0  02:40      1.45    0.95    1.00
  WS02006239WS02006238 CONDUIT    425.19     0  02:40      1.10    1.36    1.00
  WS02006240WS02006239 CONDUIT    422.84     0  02:40      1.24    1.33    1.00
  WS02006242WS02006240 CONDUIT    419.49     0  03:03      1.13    1.67    1.00
  WS02006243WS02006242 CONDUIT    419.93     0  03:03      1.40    0.90    1.00
  WS02006245WS02006243 CONDUIT    419.64     0  03:03      1.45    1.24    1.00
  WS02006247WS02006245 CONDUIT    420.04     0  02:40      1.43    3.33    1.00
  WS02006248WS02006247 CONDUIT    420.26     0  02:40      1.44    0.91    1.00
  WS02006249WS02006248 CONDUIT    421.34     0  02:30      1.36    2.31    1.00
  WS02006251WS02006249 CONDUIT    459.02     0  00:00      1.99    1.32    1.00
  WS02006252WS02006251 CONDUIT    408.26     0  02:08     25.72    1.50    1.00
  WS02006256WS02006235 CONDUIT    288.91     0  00:00      4.23    3.06    1.00
  WSF200WS02003060     CONDUIT    535.92     0  02:27      2.06    0.12    0.28
  YS02001580YS02001583 CONDUIT     98.09     0  02:05      0.62    0.38    1.00
  YS02001583YS02001586 CONDUIT    148.78     0  02:04      0.63    0.23    1.00
  YS02001586YS02001590 CONDUIT    318.05     0  02:18      1.25    0.56    1.00
  YS02001590YS02001593 CONDUIT    318.00     0  02:28      1.12    2.00    1.00
  YS02001593YS02001596 CONDUIT    317.89     0  02:28      1.74    0.50    1.00
  YS02001596YS02001600 CONDUIT    317.98     0  02:28      1.24    0.62    1.00
  YS02001600YS02001601 CONDUIT    317.92     0  02:10      1.12    0.55    1.00
  YS02001601YS02001602 CONDUIT    511.08     0  02:04      1.81    1.85    1.00
  YS02001602YS02001605 CONDUIT    511.18     0  02:04      1.81   10.82    1.00
  YS02001605YS02001607 CONDUIT    511.19     0  02:04      1.81    2.80    1.00
  YS02001607YS02001610 CONDUIT    517.52     0  02:04      0.66    0.49    1.00
  YS02001610YS02001613 CONDUIT    521.28     0  02:04      0.66    0.60    1.00
  YS02001613YS02001616 CONDUIT    525.89     0  02:04      0.67    0.45    1.00
  YS02001616YS02001619 CONDUIT    502.82     0  02:04      0.67    0.87    1.00
  YS02001619YS02001622 CONDUIT    924.30     0  02:13      1.18    1.36    1.00
  YS02001622YS02001625 CONDUIT    925.07     0  02:13      1.18    0.49    1.00
  YS02001625YS02001629 CONDUIT    916.78     0  02:04      1.18    0.44    1.00
  YS02001629YS02163301 CONDUIT    917.45     0  02:07      1.17    1.13    1.00
  YS02001633YS02163601 CONDUIT   1346.76     0  02:07      1.71    1.41    1.00
  YS02001641YS02001644 CONDUIT   1342.27     0  02:07      1.71    4.34    1.00
  YS02001644YS02001647 CONDUIT   1737.13     0  02:07      2.21    1.02    1.00
  YS02001647YS02001649 CONDUIT   1740.63     0  02:07      2.33    0.92    1.00
  YS02001649YS02001757 CONDUIT   1879.67     0  02:06      2.42    1.14    1.00
  YS02001652YS02001649 CONDUIT    818.00     0  02:14      1.04    0.41    1.00
  YS02001655YS02001652 CONDUIT    818.20     0  02:14      1.29    0.40    1.00
  YS02001658YS02001655 CONDUIT    817.98     0  02:14      1.88    0.35    1.00
  YS02001661YS02001658 CONDUIT    818.08     0  02:14      2.27    0.32    1.00
  YS02001664YS02001661 CONDUIT    839.96     0  02:13      2.23    0.26    0.76
  YS02001745YS02001748 CONDUIT    584.51     0  02:10      2.12    0.23    0.89
  YS02001748YS02001751 CONDUIT    512.08     0  02:13      1.66    0.26    1.00
  YS02001751YS02001754 CONDUIT    512.64     0  02:13      1.43    0.25    1.00
  YS02001754YS02001757 CONDUIT    513.33     0  02:13      0.65    0.21    1.00
  YS02001757CaochengTiaoxuchi CONDUIT   3167.16     0  02:11      4.03    1.37    1.00
  YS02001759YS02001757 CONDUIT   1298.21     0  02:13      1.65    0.92    1.00
  YS02001762YS02001759 CONDUIT    695.08     0  02:10      0.88    0.80    1.00
  YS02001765YS02001762 CONDUIT    694.54     0  02:10      0.88    0.65    1.00
  YS02001767YS02001765 CONDUIT    695.91     0  02:10      0.89    0.88    1.00
  YS02001770YS02001767 CONDUIT    696.45     0  02:10      0.89    2.76    1.00
  YS02001774YS02001770 CONDUIT    436.72     0  02:14      0.56    0.28    1.00
  YS02001779YS02001774 CONDUIT    437.05     0  02:14      0.56    0.22    1.00
  YS02001783YS02001784 CONDUIT   1165.09     0  02:13      2.32    1.61    1.00
  YS02001784YS02001785 CONDUIT   1165.57     0  02:13      2.32    2.71    1.00
  YS02001786YS02001788 CONDUIT   1166.29     0  02:13      2.49    2.25    0.89
  YS02001788YS02001790 CONDUIT   1178.68     0  02:12      2.72    0.87    0.84
  YS02001790YS02001791 CONDUIT   1296.79     0  02:14      3.43    1.41    0.71
  YS02001791YS02001793 CONDUIT   1250.00     0  02:12      6.75    0.54    0.45
  YS02001793JiankangQianchi CONDUIT   1250.51     0  02:12      2.51    0.10    0.65
  YS02001882YS02001884 CONDUIT     35.52     0  02:06      0.11    0.04    1.00
  YS02001884YS02001887 CONDUIT     70.81     0  02:06      0.09    0.09    1.00
  YS02001887YS02001890 CONDUIT    770.78     0  02:13      0.98    1.32    1.00
  YS02001890YS02001895 CONDUIT    517.13     0  02:16      0.66    0.24    1.00
  YS02001895YS02001898 CONDUIT    517.62     0  02:17      0.66    0.90    1.00
  YS02001898YS02001901 CONDUIT    517.73     0  02:17      0.66    0.33    1.00
  YS02001901YS02001904 CONDUIT    517.56     0  02:17      0.66    0.80    1.00
  YS02001904YS02001907 CONDUIT    517.26     0  02:17      0.66    0.18    1.00
  YS02001907YS02006553 CONDUIT    801.88     0  02:28      0.89    0.94    1.00
  YS02001910YS02001907 CONDUIT   1315.70     0  02:13      1.68    0.74    1.00
  YS02001915YS02001910 CONDUIT   1315.80     0  02:13      1.68    0.65    1.00
  YS02001918YS02001915 CONDUIT    458.40     0  02:13      0.58    0.25    1.00
  YS02001920YS02001918 CONDUIT    457.84     0  02:13      0.66    0.44    1.00
  YS02001923YS02001920 CONDUIT    455.37     0  02:13      0.69    0.20    1.00
  YS02001926YS02001923 CONDUIT    450.58     0  02:13      0.96    0.64    1.00
  YS02001929YS02001926 CONDUIT    447.13     0  02:13      1.12    0.21    1.00
  YS02006553YS02006556 CONDUIT    802.49     0  02:28      1.02    0.69    1.00
  YS02006556YS02006558 CONDUIT    802.46     0  02:28      1.02    0.63    1.00
  YS02006558YS02006561 CONDUIT   1164.58     0  02:13      4.12    2.57    1.00
  YS02006561YS02001783 CONDUIT   1164.38     0  02:13      2.32    0.60    1.00
  YS02163301YS02001633 CONDUIT    918.41     0  02:07      1.17    0.86    1.00
  YS02163601YS02164001 CONDUIT   1345.68     0  02:07      1.71    1.19    1.00
  YS02164001YS02001641 CONDUIT   1343.32     0  02:07      1.71    1.83    1.00
  CC-R1                PUMP       683.00     0  00:00              1.00
  CC-R2                PUMP       683.00     0  00:00              1.00
  CC-S1                PUMP       200.00     0  00:00              1.00
  CC-S2                PUMP       200.00     0  00:00              1.00
  JK-R1                PUMP      1000.00     0  00:00              1.00
  JK-R2                PUMP      1000.00     0  00:00              1.00
  JK-S                 PUMP       300.00     0  00:00              1.00
  
  
  ***************************
  Flow Classification Summary
  ***************************
  
  -------------------------------------------------------------------------------------
                      Adjusted    ---------- Fraction of Time in Flow Class ---------- 
                       /Actual         Up    Down  Sub   Sup   Up    Down  Norm  Inlet 
  Conduit               Length    Dry  Dry   Dry   Crit  Crit  Crit  Crit  Ltd   Ctrl  
  -------------------------------------------------------------------------------------
  1                       1.00   0.00  0.00  0.00  0.00  1.00  0.00  0.00  0.44  0.00
  WS02003060WS02003069    1.00   0.00  0.00  0.00  0.98  0.02  0.00  0.00  0.67  0.00
  WS02003066WSF200        1.00   0.13  0.00  0.00  0.00  0.87  0.00  0.00  0.79  0.00
  WS02003067WS02003066    1.00   0.10  0.02  0.00  0.88  0.00  0.00  0.00  0.00  0.00
  WS02003069WS02003072    1.00   0.00  0.00  0.00  0.99  0.01  0.00  0.00  0.73  0.00
  WS02003072WS02003073    1.00   0.00  0.00  0.00  0.00  0.00  0.00  1.00  0.00  0.00
  WS02004401WS02004402    1.00   0.02  0.00  0.00  0.98  0.00  0.00  0.00  0.00  0.00
  WS02004402WS02004403    1.00   0.02  0.00  0.00  0.97  0.00  0.00  0.00  0.00  0.00
  WS02004403WS02004404    1.00   0.00  0.03  0.00  0.97  0.00  0.00  0.00  0.00  0.00
  WS02004404WS02004405    1.00   0.00  0.00  0.00  1.00  0.00  0.00  0.00  0.00  0.00
  WS02004405WS02004406    1.00   0.00  0.00  0.00  1.00  0.00  0.00  0.00  0.00  0.00
  WS02004406WS02004407    1.00   0.00  0.05  0.00  0.95  0.00  0.00  0.00  0.00  0.00
  WS02004407WS02004409    1.00   0.05  0.00  0.00  0.94  0.01  0.00  0.00  0.94  0.00
  WS02004409WS02004410    1.00   0.05  0.00  0.00  0.95  0.00  0.00  0.00  0.03  0.00
  WS02004410WS02004411    1.00   0.05  0.00  0.00  0.95  0.00  0.00  0.00  0.01  0.00
  WS02004411WS02004412    1.00   0.05  0.00  0.00  0.95  0.00  0.00  0.00  0.00  0.00
  WS02004412WS02004413    1.00   0.05  0.00  0.00  0.94  0.00  0.00  0.00  0.01  0.00
  WS02004413WS02003067    1.00   0.06  0.04  0.00  0.00  0.00  0.90  0.00  0.00  0.00
  WS02006109WS02006110    1.00   0.00  0.01  0.00  0.98  0.00  0.01  0.00  0.00  0.00
  WS02006110WS02006113    1.00   0.01  0.01  0.00  0.98  0.00  0.00  0.00  0.00  0.00
  WS02006111WS02006112    1.00   0.02  0.00  0.00  0.98  0.00  0.00  0.00  0.98  0.00
  WS02006112WS02006115    1.00   0.02  0.00  0.00  0.97  0.00  0.00  0.00  0.00  0.00
  WS02006113WS02006111    1.00   0.02  0.00  0.00  0.00  0.98  0.00  0.00  0.15  0.00
  WS02006115WS02006116    1.00   0.02  0.00  0.00  0.97  0.00  0.00  0.01  0.00  0.00
  WS02006116WS02004401    1.00   0.02  0.00  0.00  0.98  0.00  0.00  0.00  0.00  0.00
  WS02006228WS02006109    1.00   0.00  0.00  0.00  1.00  0.00  0.00  0.00  0.00  0.00
  WS02006229WS02006228    1.00   0.00  0.00  0.00  0.99  0.00  0.00  0.01  0.00  0.00
  WS02006230WS02006229    1.00   0.00  0.00  0.00  0.99  0.00  0.00  0.01  0.01  0.00
  WS02006231WS02006230    1.00   0.00  0.00  0.00  0.28  0.00  0.71  0.00  0.00  0.00
  WS02006232WS02006231    1.00   0.00  0.00  0.00  0.99  0.00  0.01  0.00  0.00  0.00
  WS02006234WS02006232    1.00   0.00  0.00  0.00  1.00  0.00  0.00  0.00  0.12  0.00
  WS02006235WS02006234    1.00   0.00  0.00  0.00  0.78  0.00  0.22  0.00  0.00  0.00
  WS02006238WS02006235    1.00   0.00  0.00  0.00  1.00  0.00  0.00  0.00  0.00  0.00
  WS02006239WS02006238    1.00   0.00  0.00  0.00  1.00  0.00  0.00  0.00  0.31  0.00
  WS02006240WS02006239    1.00   0.00  0.00  0.00  0.63  0.00  0.00  0.37  0.02  0.00
  WS02006242WS02006240    1.00   0.00  0.00  0.00  1.00  0.00  0.00  0.00  0.00  0.00
  WS02006243WS02006242    1.00   0.00  0.00  0.00  0.99  0.00  0.00  0.00  0.47  0.00
  WS02006245WS02006243    1.00   0.00  0.00  0.00  0.72  0.00  0.00  0.28  0.01  0.00
  WS02006247WS02006245    1.00   0.00  0.00  0.00  0.98  0.00  0.00  0.02  0.00  0.00
  WS02006248WS02006247    1.00   0.00  0.00  0.00  0.99  0.00  0.00  0.01  0.25  0.00
  WS02006249WS02006248    1.00   0.00  0.00  0.00  0.53  0.00  0.47  0.00  0.00  0.00
  WS02006251WS02006249    1.00   0.00  0.00  0.00  0.99  0.01  0.00  0.00  0.49  0.00
  WS02006252WS02006251    1.00   0.00  0.51  0.00  0.09  0.00  0.40  0.00  0.00  0.00
  WS02006256WS02006235    1.00   0.00  0.00  0.00  0.99  0.01  0.00  0.00  0.00  0.00
  WSF200WS02003060        1.00   0.00  0.13  0.00  0.32  0.55  0.00  0.00  0.40  0.00
  YS02001580YS02001583    1.00   0.26  0.56  0.00  0.18  0.00  0.00  0.00  0.65  0.00
  YS02001583YS02001586    1.00   0.42  0.34  0.00  0.24  0.00  0.00  0.00  0.65  0.00
  YS02001586YS02001590    1.00   0.13  0.00  0.00  0.43  0.04  0.00  0.40  0.37  0.00
  YS02001590YS02001593    1.00   0.13  0.01  0.00  0.11  0.00  0.76  0.00  0.00  0.00
  YS02001593YS02001596    1.00   0.14  0.00  0.00  0.12  0.01  0.00  0.73  0.02  0.00
  YS02001596YS02001600    1.00   0.14  0.00  0.00  0.19  0.01  0.00  0.66  0.05  0.00
  YS02001600YS02001601    1.00   0.13  0.01  0.00  0.86  0.00  0.00  0.00  0.61  0.00
  YS02001601YS02001602    1.00   0.13  0.01  0.00  0.86  0.00  0.00  0.00  0.00  0.00
  YS02001602YS02001605    1.00   0.14  0.00  0.00  0.86  0.00  0.00  0.00  0.00  0.00
  YS02001605YS02001607    1.00   0.14  0.00  0.00  0.86  0.00  0.00  0.00  0.00  0.00
  YS02001607YS02001610    1.00   0.13  0.01  0.00  0.86  0.00  0.00  0.00  0.02  0.00
  YS02001610YS02001613    1.00   0.13  0.00  0.00  0.87  0.00  0.00  0.00  0.01  0.00
  YS02001613YS02001616    1.00   0.13  0.00  0.00  0.87  0.00  0.00  0.00  0.01  0.00
  YS02001616YS02001619    1.00   0.13  0.00  0.00  0.87  0.00  0.00  0.00  0.00  0.00
  YS02001619YS02001622    1.00   0.13  0.00  0.00  0.87  0.00  0.00  0.00  0.29  0.00
  YS02001622YS02001625    1.00   0.13  0.00  0.00  0.87  0.00  0.00  0.00  0.05  0.00
  YS02001625YS02001629    1.00   0.13  0.05  0.00  0.15  0.00  0.67  0.00  0.00  0.00
  YS02001629YS02163301    1.00   0.16  0.01  0.00  0.83  0.00  0.00  0.00  0.00  0.00
  YS02001633YS02163601    1.00   0.00  0.01  0.00  0.99  0.00  0.00  0.00  0.15  0.00
  YS02001641YS02001644    1.00   0.00  0.01  0.00  0.99  0.00  0.00  0.00  0.00  0.00
  YS02001644YS02001647    1.00   0.00  0.18  0.00  0.82  0.00  0.00  0.00  0.00  0.00
  YS02001647YS02001649    1.00   0.00  0.18  0.00  0.52  0.30  0.00  0.00  0.56  0.00
  YS02001649YS02001757    1.00   0.00  0.00  0.00  0.84  0.16  0.00  0.00  0.42  0.00
  YS02001652YS02001649    1.00   0.00  0.00  0.00  0.96  0.04  0.00  0.00  0.75  0.00
  YS02001655YS02001652    1.00   0.00  0.00  0.00  0.17  0.02  0.00  0.81  0.05  0.00
  YS02001658YS02001655    1.00   0.00  0.14  0.00  0.65  0.20  0.00  0.00  0.70  0.00
  YS02001661YS02001658    1.00   0.14  0.00  0.00  0.49  0.37  0.00  0.00  0.71  0.00
  YS02001664YS02001661    1.00   0.13  0.00  0.00  0.78  0.09  0.00  0.00  0.85  0.00
  YS02001745YS02001748    1.00   0.00  0.00  0.00  0.09  0.01  0.00  0.90  0.04  0.00
  YS02001748YS02001751    1.00   0.00  0.00  0.00  0.82  0.18  0.00  0.00  0.76  0.00
  YS02001751YS02001754    1.00   0.00  0.00  0.00  0.15  0.01  0.00  0.85  0.02  0.00
  YS02001754YS02001757    1.00   0.00  0.00  0.00  1.00  0.00  0.00  0.00  0.83  0.00
  YS02001757CaochengTiaoxuchi    1.00   0.00  0.00  0.00  1.00  0.00  0.00  0.00  0.67  0.00
  YS02001759YS02001757    1.00   0.00  0.00  0.00  1.00  0.00  0.00  0.00  0.53  0.00
  YS02001762YS02001759    1.00   0.00  0.00  0.00  1.00  0.00  0.00  0.00  0.05  0.00
  YS02001765YS02001762    1.00   0.00  0.00  0.00  1.00  0.00  0.00  0.00  0.68  0.00
  YS02001767YS02001765    1.00   0.00  0.00  0.00  1.00  0.00  0.00  0.00  0.01  0.00
  YS02001770YS02001767    1.00   0.00  0.00  0.00  1.00  0.00  0.00  0.00  0.00  0.00
  YS02001774YS02001770    1.00   0.00  0.13  0.00  0.70  0.00  0.17  0.00  0.03  0.00
  YS02001779YS02001774    1.00   0.00  0.00  0.00  1.00  0.00  0.00  0.00  0.78  0.00
  YS02001783YS02001784    1.00   0.00  0.19  0.00  0.81  0.00  0.00  0.00  0.55  0.00
  YS02001784YS02001785    1.00   0.00  0.00  0.00  1.00  0.00  0.00  0.00  0.17  0.00
  YS02001786YS02001788    1.00   0.00  0.00  0.00  0.79  0.21  0.00  0.00  0.00  0.00
  YS02001788YS02001790    1.00   0.00  0.00  0.00  0.21  0.79  0.00  0.00  0.81  0.00
  YS02001790YS02001791    1.00   0.00  0.00  0.00  0.01  0.99  0.00  0.00  0.16  0.00
  YS02001791YS02001793    1.00   0.00  0.00  0.00  0.00  1.00  0.00  0.00  0.01  0.00
  YS02001793JiankangQianchi    1.00   0.00  0.00  0.00  0.99  0.01  0.00  0.00  0.96  0.00
  YS02001882YS02001884    1.00   0.15  0.01  0.00  0.84  0.00  0.00  0.00  0.00  0.00
  YS02001884YS02001887    1.00   0.06  0.05  0.00  0.89  0.00  0.00  0.00  0.00  0.00
  YS02001887YS02001890    1.00   0.00  0.00  0.00  0.97  0.00  0.03  0.00  0.00  0.00
  YS02001890YS02001895    1.00   0.00  0.17  0.00  0.83  0.00  0.00  0.00  0.00  0.00
  YS02001895YS02001898    1.00   0.17  0.00  0.00  0.81  0.00  0.02  0.00  0.00  0.00
  YS02001898YS02001901    1.00   0.17  0.00  0.00  0.83  0.00  0.00  0.00  0.01  0.00
  YS02001901YS02001904    1.00   0.17  0.00  0.00  0.83  0.00  0.00  0.00  0.00  0.00
  YS02001904YS02001907    1.00   0.00  0.17  0.00  0.83  0.00  0.00  0.00  0.00  0.00
  YS02001907YS02006553    1.00   0.00  0.02  0.00  0.98  0.00  0.00  0.00  0.00  0.00
  YS02001910YS02001907    1.00   0.00  0.00  0.00  0.97  0.00  0.00  0.03  0.12  0.00
  YS02001915YS02001910    1.00   0.00  0.00  0.00  0.97  0.03  0.00  0.00  0.16  0.00
  YS02001918YS02001915    1.00   0.00  0.01  0.00  0.98  0.02  0.00  0.00  0.76  0.00
  YS02001920YS02001918    1.00   0.00  0.01  0.00  0.99  0.00  0.00  0.00  0.00  0.00
  YS02001923YS02001920    1.00   0.00  0.00  0.00  1.00  0.00  0.00  0.00  0.93  0.00
  YS02001926YS02001923    1.00   0.00  0.07  0.00  0.05  0.00  0.87  0.00  0.00  0.00
  YS02001929YS02001926    1.00   0.00  0.13  0.00  0.87  0.00  0.00  0.00  0.83  0.00
  YS02006553YS02006556    1.00   0.01  0.00  0.00  0.99  0.00  0.00  0.00  0.03  0.00
  YS02006556YS02006558    1.00   0.00  0.00  0.00  1.00  0.00  0.00  0.00  0.00  0.00
  YS02006558YS02006561    1.00   0.18  0.00  0.00  0.05  0.77  0.00  0.00  0.19  0.00
  YS02006561YS02001783    1.00   0.18  0.00  0.00  0.08  0.73  0.00  0.00  0.69  0.00
  YS02163301YS02001633    1.00   0.00  0.16  0.00  0.84  0.00  0.00  0.00  0.00  0.00
  YS02163601YS02164001    1.00   0.00  0.08  0.00  0.92  0.00  0.00  0.00  0.00  0.00
  YS02164001YS02001641    1.00   0.01  0.07  0.00  0.92  0.00  0.00  0.00  0.06  0.00
  
  
  *************************
  Conduit Surcharge Summary
  *************************
  
  ----------------------------------------------------------------------------
                                                           Hours        Hours 
                         --------- Hours Full --------   Above Full   Capacity
  Conduit                Both Ends  Upstream  Dnstream   Normal Flow   Limited
  ----------------------------------------------------------------------------
  WS02003072WS02003073        0.01      0.01      0.01      0.98         0.01
  WS02004404WS02004405        0.01      0.01      0.01      4.02         0.01
  WS02004405WS02004406        0.01      0.01      0.01      0.52         0.01
  WS02006109WS02006110        0.56      0.56      1.97      0.66         0.01
  WS02006110WS02006113        0.01      0.01      1.92      0.01         0.01
  WS02006111WS02006112        0.01      0.01      2.59      0.01         0.01
  WS02006112WS02006115        0.01      0.01      0.57      0.01         0.01
  WS02006228WS02006109        1.88      1.98      1.88      3.05         1.88
  WS02006229WS02006228        1.88      1.89      1.88      2.46         1.87
  WS02006230WS02006229        2.11      2.38      2.11      4.43         2.11
  WS02006231WS02006230        0.57      0.57      0.71      4.22         0.01
  WS02006232WS02006231        0.67      0.67      1.97      0.73         0.01
  WS02006234WS02006232        1.84      1.84      1.97      0.71         0.71
  WS02006235WS02006234        1.01      1.02      1.87      4.14         0.01
  WS02006238WS02006235        1.90      1.90      1.99      0.01         0.01
  WS02006239WS02006238        1.90      1.94      1.93      2.19         1.69
  WS02006240WS02006239        1.87      1.90      1.87      2.17         1.58
  WS02006242WS02006240        1.89      1.89      2.08      2.47         0.01
  WS02006243WS02006242        1.84      1.84      1.97      0.01         0.03
  WS02006245WS02006243        1.82      1.83      1.82      1.62         1.30
  WS02006247WS02006245        1.82      1.85      1.82      3.87         1.81
  WS02006248WS02006247        1.81      1.81      1.84      0.01         0.04
  WS02006249WS02006248        1.80      1.80      1.82      3.85         0.01
  WS02006251WS02006249        1.82      1.82      1.82      2.29         1.76
  WS02006252WS02006251        2.35      2.35      2.35      2.35         0.01
  WS02006256WS02006235        4.15      4.19      5.76      1.08         0.01
  YS02001580YS02001583        0.53      0.53      0.58      0.01         0.01
  YS02001583YS02001586        0.54      0.54      0.66      0.01         0.01
  YS02001586YS02001590        0.67      0.67      0.73      0.01         0.01
  YS02001590YS02001593        0.73      0.73      0.75      0.77         0.01
  YS02001593YS02001596        0.75      0.75      0.84      0.01         0.01
  YS02001596YS02001600        0.89      0.89      1.00      0.01         0.01
  YS02001600YS02001601        1.06      1.06      1.32      0.01         0.01
  YS02001601YS02001602        1.22      1.22      1.36      0.99         0.01
  YS02001602YS02001605        1.17      1.17      1.22      2.21         0.01
  YS02001605YS02001607        1.13      1.17      1.13      1.29         1.13
  YS02001607YS02001610        0.72      0.72      0.75      0.01         0.01
  YS02001610YS02001613        0.71      0.71      0.75      0.01         0.01
  YS02001613YS02001616        0.67      0.67      0.71      0.01         0.01
  YS02001616YS02001619        0.66      0.66      0.67      0.01         0.01
  YS02001619YS02001622        0.66      0.66      0.66      0.73         0.63
  YS02001622YS02001625        0.66      0.66      0.84      0.01         0.01
  YS02001625YS02001629        0.61      0.61      0.84      0.01         0.01
  YS02001629YS02163301        0.83      0.83      0.84      0.08         0.14
  YS02001633YS02163601        0.86      0.86      0.89      0.30         0.29
  YS02001641YS02001644        0.78      0.80      0.78      1.40         0.77
  YS02001644YS02001647        0.58      0.58      0.78      0.02         0.01
  YS02001647YS02001649        0.58      0.58      0.70      0.01         0.01
  YS02001649YS02001757        0.69      0.70      0.76      0.07         0.03
  YS02001652YS02001649        0.54      0.54      0.70      0.01         0.01
  YS02001655YS02001652        0.37      0.37      0.51      0.01         0.01
  YS02001658YS02001655        0.20      0.20      0.37      0.01         0.01
  YS02001661YS02001658        0.01      0.01      0.20      0.01         0.01
  YS02001664YS02001661        0.01      0.01      0.07      0.01         0.01
  YS02001745YS02001748        0.01      0.01      0.15      0.01         0.01
  YS02001748YS02001751        0.18      0.18      0.27      0.01         0.01
  YS02001751YS02001754        0.27      0.27      0.43      0.01         0.01
  YS02001754YS02001757        0.47      0.47      0.76      0.01         0.01
  YS02001757CaochengTiaoxuchi        0.76      0.76      1.82      0.29         0.29
  YS02001759YS02001757        0.67      0.67      0.76      0.01         0.01
  YS02001762YS02001759        0.64      0.64      0.67      0.01         0.02
  YS02001765YS02001762        0.60      0.60      0.64      0.01         0.01
  YS02001767YS02001765        0.56      0.56      0.60      0.01         0.02
  YS02001770YS02001767        0.56      0.56      0.56      0.47         0.39
  YS02001774YS02001770        0.54      0.54      0.62      0.01         0.01
  YS02001779YS02001774        0.42      0.42      0.62      0.01         0.01
  YS02001783YS02001784        0.46      0.48      0.46      0.63         0.46
  YS02001784YS02001785        0.36      0.46      0.36      0.84         0.36
  YS02001786YS02001788        0.01      0.36      0.01      0.73         0.01
  YS02001790YS02001791        0.01      0.01      0.01      0.44         0.01
  YS02001793JiankangQianchi        0.01      0.01      7.53      0.01         0.01
  YS02001882YS02001884        0.43      0.43      0.44      0.01         0.01
  YS02001884YS02001887        0.46      0.46      0.47      0.01         0.01
  YS02001887YS02001890        0.48      0.48      0.49      0.09         0.01
  YS02001890YS02001895        0.42      0.42      0.51      0.01         0.01
  YS02001895YS02001898        0.41      0.41      0.42      0.01         0.01
  YS02001898YS02001901        0.42      0.42      0.46      0.01         0.01
  YS02001901YS02001904        0.45      0.45      0.46      0.01         0.01
  YS02001904YS02001907        0.45      0.45      0.71      0.01         0.01
  YS02001907YS02006553        0.86      0.86      0.92      0.01         0.01
  YS02001910YS02001907        0.51      0.51      0.69      0.01         0.01
  YS02001915YS02001910        0.43      0.43      0.51      0.01         0.01
  YS02001918YS02001915        0.35      0.35      0.43      0.01         0.01
  YS02001920YS02001918        0.34      0.35      0.36      0.01         0.01
  YS02001923YS02001920        0.30      0.30      0.36      0.01         0.01
  YS02001926YS02001923        0.05      0.06      0.09      0.01         0.01
  YS02001929YS02001926        0.01      0.01      0.09      0.01         0.01
  YS02006553YS02006556        0.60      0.60      0.70      0.01         0.01
  YS02006556YS02006558        0.65      0.65      0.72      0.01         0.01
  YS02006558YS02006561        0.38      0.59      0.38      0.80         0.38
  YS02006561YS02001783        0.32      0.32      0.48      0.01         0.01
  YS02163301YS02001633        0.84      0.84      0.88      0.01         0.01
  YS02163601YS02164001        0.81      0.81      0.89      0.07         0.01
  YS02164001YS02001641        0.80      0.81      0.80      0.63         0.56
  
  
  ***************
  Pumping Summary
  ***************
  
  ---------------------------------------------------------------------------------------------------------
                                                  Min       Avg       Max     Total     Power    % Time Off
                        Percent   Number of      Flow      Flow      Flow    Volume     Usage    Pump Curve
  Pump                 Utilized   Start-Ups       LPS       LPS       LPS  10^6 ltr     Kw-hr    Low   High
  ---------------------------------------------------------------------------------------------------------
  CC-R1                   15.52           4      0.00    683.00    683.00     3.053     57.48    0.0   12.4
  CC-R2                   14.52           2      0.00    683.00    683.00     2.856     53.84    0.0   12.9
  CC-S1                   45.56           8      0.00    200.00    200.00     2.624     15.62    0.0    0.0
  CC-S2                   32.53           9      0.00    200.00    200.00     1.874     11.07    0.0    0.0
  JK-R1                    7.46          12      0.00   1000.00   1000.00     2.149     23.82    0.0    0.0
  JK-R2                    1.33           6      0.00   1000.00   1000.00     0.383      3.10    0.0    0.0
  JK-S                    13.48          16      0.00    300.00    300.00     1.165     17.16    0.0    0.0
  

  Analysis begun on:  Mon Apr 14 20:59:00 2025
  Analysis ended on:  Mon Apr 14 20:59:02 2025
  Total elapsed time: 00:00:02