
  EPA STORM WATER MANAGEMENT MODEL - VERSION 5.2 (Build 5.2.4)
  PYSWMM TOOLKIT API - VERSION v1.0 (2023-11-27)
  ------------------------------------------------------------

  WARNING 04: minimum elevation drop used for Conduit WS02004404WS02004405
  WARNING 03: negative offset ignored for Link YS02001904YS02001907
  
  ****************
  Analysis Options
  ****************
  Flow Units ............... LPS
  Process Models:
    Rainfall/Runoff ........ YES
    RDII ................... NO
    Snowmelt ............... NO
    Groundwater ............ NO
    Flow Routing ........... YES
    Ponding Allowed ........ NO
    Water Quality .......... NO
  Infiltration Method ...... HORTON
  Flow Routing Method ...... DYNWAVE
  Surcharge Method ......... EXTRAN
  Starting Date ............ 08/28/2015 08:00:00
  Ending Date .............. 08/28/2015 16:00:00
  Antecedent Dry Days ...... 8.0
  Report Time Step ......... 00:01:00
  Wet Time Step ............ 00:01:00
  Dry Time Step ............ 00:01:00
  Routing Time Step ........ 30.00 sec
  Variable Time Step ....... YES
  Maximum Trials ........... 8
  Number of Threads ........ 4
  Head Tolerance ........... 0.001500 m
  
  
  **************************        Volume         Depth
  Runoff Quantity Continuity     hectare-m            mm
  **************************     ---------       -------
  Total Precipitation ......         1.505        45.382
  Evaporation Loss .........         0.000         0.000
  Infiltration Loss ........         0.092         2.788
  Surface Runoff ...........         1.380        41.615
  Final Storage ............         0.033         0.992
  Continuity Error (%) .....        -0.030
  
  
  **************************        Volume        Volume
  Flow Routing Continuity        hectare-m      10^6 ltr
  **************************     ---------     ---------
  Dry Weather Inflow .......         0.025         0.251
  Wet Weather Inflow .......         1.381        13.808
  Groundwater Inflow .......         0.000         0.000
  RDII Inflow ..............         0.000         0.000
  External Inflow ..........         0.083         0.834
  External Outflow .........         1.315        13.149
  Flooding Loss ............         0.228         2.283
  Evaporation Loss .........         0.000         0.000
  Exfiltration Loss ........         0.000         0.000
  Initial Stored Volume ....         0.243         2.431
  Final Stored Volume ......         0.195         1.952
  Continuity Error (%) .....        -0.353
  
  
  *************************
  Highest Continuity Errors
  *************************
  Node YS02001583 (-15.43%)
  Node YS02001884 (5.04%)
  Node YS02001774 (1.49%)
  
  
  ***************************
  Time-Step Critical Elements
  ***************************
  Link WS02006252WS02006251 (56.22%)
  Link WS02006238WS02006235 (12.79%)
  Link WS02004404WS02004405 (11.06%)
  Link WS02006235WS02006234 (5.84%)
  Link WS02003066WSF200 (3.89%)
  
  
  ********************************
  Highest Flow Instability Indexes
  ********************************
  Link WS02006113WS02006111 (52)
  Link WS02006111WS02006112 (20)
  Link WS02006256WS02006235 (10)
  Link WS02006238WS02006235 (9)
  Link WS02006252WS02006251 (8)
  
  
  *********************************
  Most Frequent Nonconverging Nodes
  *********************************
  Node CC-1 (9.87%)
  Node CC-2 (9.87%)
  Node JK-1 (9.87%)
  Node JK-2 (9.87%)
  Node WSC (9.87%)
  
  
  *************************
  Routing Time Step Summary
  *************************
  Minimum Time Step           :     0.01 sec
  Average Time Step           :     1.74 sec
  Maximum Time Step           :     7.04 sec
  % of Time in Steady State   :     0.00
  Average Iterations per Step :     2.79
  % of Steps Not Converging   :     9.87
  Time Step Frequencies       :
     30.000 - 13.228 sec      :     0.00 %
     13.228 -  5.833 sec      :     7.58 %
      5.833 -  2.572 sec      :    14.77 %
      2.572 -  1.134 sec      :    16.39 %
      1.134 -  0.500 sec      :    61.26 %
  
  
  ***************************
  Subcatchment Runoff Summary
  ***************************
  
  ------------------------------------------------------------------------------------------------------------------------------
                            Total      Total      Total      Total     Imperv       Perv      Total       Total     Peak  Runoff
                           Precip      Runon       Evap      Infil     Runoff     Runoff     Runoff      Runoff   Runoff   Coeff
  Subcatchment                 mm         mm         mm         mm         mm         mm         mm    10^6 ltr      LPS
  ------------------------------------------------------------------------------------------------------------------------------
  sub60                     45.38       0.00       0.00       1.72      38.73       3.73      42.46        0.56   363.55   0.936
  sub61                     45.38       0.00       0.00       2.48      36.54       5.24      41.77        0.77   497.94   0.920
  sub62                     45.38       0.00       0.00       1.15      40.47       2.49      42.95        1.18   694.96   0.946
  sub63                     45.38       0.00       0.00       4.53      31.25       8.64      39.89        0.91   531.64   0.879
  sub64                     45.38       0.00       0.00       2.30      37.37       4.51      41.88        1.01   544.40   0.923
  sub65                     45.38       0.00       0.00       1.99      38.23       3.91      42.15        1.16   603.16   0.929
  sub66                     45.38       0.00       0.00       5.51      31.15       7.65      38.80        1.81   744.04   0.855
  sub67                     45.38       0.00       0.00       1.11      40.51       2.52      43.03        0.80   566.97   0.948
  sub68                     45.38       0.00       0.00       2.05      37.84       4.30      42.15        1.16   711.18   0.929
  sub69                     45.38       0.00       0.00       1.78      38.47       5.03      43.50        1.61   821.73   0.958
  sub70                     45.38       0.00       0.00       5.81      29.79       9.62      39.41        1.14   424.01   0.868
  sub71                     45.38       0.00       0.00       1.17      40.43       2.46      42.89        1.12   592.47   0.945
  sub72                     45.38       0.00       0.00       1.04      40.81       2.14      42.95        0.59   278.07   0.946
  
  
  ******************
  Node Depth Summary
  ******************
  
  ---------------------------------------------------------------------------------
                                 Average  Maximum  Maximum  Time of Max    Reported
                                   Depth    Depth      HGL   Occurrence   Max Depth
  Node                 Type       Meters   Meters   Meters  days hr:min      Meters
  ---------------------------------------------------------------------------------
  WS02003060           JUNCTION     0.25     0.38     5.31     0  02:03        0.38
  WS02003066           JUNCTION     0.20     0.29     5.85     0  02:03        0.29
  WS02003067           JUNCTION     0.52     0.69     6.01     0  02:03        0.69
  WS02003069           JUNCTION     0.27     0.42     5.01     0  02:04        0.42
  WS02003072           JUNCTION     0.34     0.49     4.86     0  02:05        0.49
  WS02003073           JUNCTION     0.19     0.29     4.36     0  02:05        0.29
  WS02004401           JUNCTION     0.60     0.85     6.85     0  02:00        0.84
  WS02004402           JUNCTION     0.64     0.87     6.83     0  02:01        0.87
  WS02004403           JUNCTION     0.66     0.89     6.82     0  02:00        0.89
  WS02004404           JUNCTION     0.74     0.96     6.81     0  02:01        0.96
  WS02004405           JUNCTION     0.73     0.95     6.80     0  02:01        0.95
  WS02004406           JUNCTION     0.75     0.95     6.78     0  02:01        0.95
  WS02004407           JUNCTION     0.19     0.29     6.61     0  02:01        0.29
  WS02004409           JUNCTION     0.41     0.66     6.43     0  02:02        0.66
  WS02004410           JUNCTION     0.44     0.67     6.39     0  02:02        0.67
  WS02004411           JUNCTION     0.46     0.68     6.36     0  02:02        0.68
  WS02004412           JUNCTION     0.48     0.69     6.33     0  02:02        0.69
  WS02004413           JUNCTION     0.64     0.85     6.32     0  02:03        0.85
  WS02006109           JUNCTION     0.67     1.14     7.76     0  02:06        1.01
  WS02006110           JUNCTION     0.67     1.17     7.75     0  02:06        1.03
  WS02006111           JUNCTION     0.18     0.29     6.99     0  01:50        0.29
  WS02006112           JUNCTION     0.76     1.06     6.94     0  01:59        1.04
  WS02006113           JUNCTION     0.28     0.46     7.35     0  02:47        0.46
  WS02006115           JUNCTION     0.49     0.75     6.89     0  02:00        0.74
  WS02006116           JUNCTION     0.57     0.82     6.86     0  02:00        0.82
  WS02006228           JUNCTION     0.66     1.18     7.83     0  01:54        1.05
  WS02006229           JUNCTION     0.63     1.22     7.92     0  02:05        1.07
  WS02006230           JUNCTION     0.62     1.41     8.16     0  02:05        1.19
  WS02006231           JUNCTION     0.42     1.14     8.26     0  01:54        0.94
  WS02006232           JUNCTION     0.56     1.26     8.30     0  01:54        1.14
  WS02006234           JUNCTION     0.48     1.28     8.43     0  02:19        1.18
  WS02006235           JUNCTION     0.51     1.49     8.65     0  02:19        1.28
  WS02006238           JUNCTION     0.54     1.54     8.68     0  02:19        1.31
  WS02006239           JUNCTION     0.51     1.53     8.74     0  02:19        1.31
  WS02006240           JUNCTION     0.48     1.46     8.76     0  02:19        1.29
  WS02006242           JUNCTION     0.55     1.50     8.77     0  02:34        1.32
  WS02006243           JUNCTION     0.45     1.37     8.79     0  02:34        1.31
  WS02006245           JUNCTION     0.45     1.30     8.79     0  02:08        1.30
  WS02006247           JUNCTION     0.47     1.29     8.79     0  02:08        1.29
  WS02006248           JUNCTION     0.43     1.10     8.69     0  01:54        1.10
  WS02006249           JUNCTION     0.46     1.09     8.69     0  01:46        1.09
  WS02006251           JUNCTION     0.46     1.37     9.04     0  01:46        1.36
  WS02006252           JUNCTION     0.35     1.50     9.74     0  00:00        0.93
  WS02006256           JUNCTION     0.93     2.35     9.28     0  00:00        2.35
  WSF200               JUNCTION     0.18     0.29     5.52     0  02:03        0.29
  YS02001580           JUNCTION     0.06     1.05     9.59     0  01:37        0.77
  YS02001583           JUNCTION     0.10     1.14     9.64     0  01:37        0.82
  YS02001586           JUNCTION     0.15     1.13     9.30     0  01:36        1.13
  YS02001590           JUNCTION     0.24     1.40     9.26     0  01:36        1.37
  YS02001593           JUNCTION     0.17     1.46     9.32     0  01:36        1.28
  YS02001596           JUNCTION     0.23     1.80     9.22     0  01:35        1.65
  YS02001600           JUNCTION     0.27     1.87     9.00     0  01:36        1.86
  YS02001601           JUNCTION     0.46     2.06     8.90     0  01:35        2.06
  YS02001602           JUNCTION     0.38     1.87     8.77     0  01:37        1.87
  YS02001605           JUNCTION     0.35     1.78     8.68     0  01:37        1.78
  YS02001607           JUNCTION     0.36     1.68     8.53     0  01:37        1.68
  YS02001610           JUNCTION     0.41     1.68     8.48     0  01:37        1.68
  YS02001613           JUNCTION     0.36     1.70     8.54     0  01:37        1.65
  YS02001616           JUNCTION     0.29     1.61     8.52     0  01:37        1.58
  YS02001619           JUNCTION     0.27     1.61     8.54     0  01:37        1.56
  YS02001622           JUNCTION     0.26     1.62     8.52     0  01:37        1.55
  YS02001625           JUNCTION     0.53     1.78     8.38     0  01:37        1.78
  YS02001629           JUNCTION     0.37     1.85     8.40     0  01:37        1.85
  YS02001633           JUNCTION     0.45     2.06     8.51     0  01:39        1.97
  YS02001641           JUNCTION     0.44     1.98     8.42     0  01:39        1.92
  YS02001644           JUNCTION     0.43     1.92     8.35     0  01:39        1.90
  YS02001647           JUNCTION     0.22     1.82     8.43     0  01:39        1.64
  YS02001649           JUNCTION     0.25     2.05     8.44     0  01:39        1.77
  YS02001652           JUNCTION     0.15     2.16     8.76     0  01:39        1.58
  YS02001655           JUNCTION     0.11     2.20     9.05     0  01:39        1.36
  YS02001658           JUNCTION     0.08     2.23     9.37     0  01:41        1.09
  YS02001661           JUNCTION     0.12     0.86     8.26     0  01:41        0.85
  YS02001664           JUNCTION     0.04     0.28     8.20     0  01:40        0.28
  YS02001745           JUNCTION     0.04     0.57     8.08     0  01:41        0.56
  YS02001748           JUNCTION     0.07     1.02     8.10     0  01:41        0.96
  YS02001751           JUNCTION     0.09     2.20     9.08     0  01:40        1.14
  YS02001754           JUNCTION     0.13     2.20     8.81     0  01:40        1.39
  YS02001757           JUNCTION     0.26     1.97     8.23     0  01:40        1.73
  YS02001759           JUNCTION     0.20     1.93     8.29     0  01:40        1.68
  YS02001762           JUNCTION     0.19     2.15     8.55     0  01:39        1.66
  YS02001765           JUNCTION     0.18     2.10     8.55     0  01:39        1.62
  YS02001767           JUNCTION     0.18     2.03     8.52     0  01:39        1.59
  YS02001770           JUNCTION     0.20     1.95     8.44     0  01:39        1.62
  YS02001774           JUNCTION     0.26     2.05     8.47     0  01:39        1.72
  YS02001779           JUNCTION     0.11     1.68     8.37     0  01:39        1.46
  YS02001783           JUNCTION     0.19     1.70     7.84     0  01:38        1.21
  YS02001784           JUNCTION     0.21     1.37     7.44     0  01:38        1.10
  YS02001786           JUNCTION     0.18     1.20     7.23     0  01:38        0.86
  YS02001788           JUNCTION     0.13     0.62     6.60     0  01:40        0.62
  YS02001790           JUNCTION     0.15     0.72     6.37     0  01:42        0.72
  YS02001791           JUNCTION     0.10     0.44     5.91     0  01:43        0.42
  YS02001793           JUNCTION     0.05     0.25     5.09     0  01:44        0.25
  YS02001882           JUNCTION     0.26     1.82     8.53     0  01:37        1.73
  YS02001884           JUNCTION     0.35     1.84     8.46     0  01:37        1.80
  YS02001887           JUNCTION     0.43     1.86     8.40     0  01:38        1.86
  YS02001890           JUNCTION     0.46     1.81     8.32     0  01:37        1.81
  YS02001895           JUNCTION     0.23     1.75     8.50     0  01:37        1.68
  YS02001898           JUNCTION     0.23     1.77     8.51     0  01:37        1.77
  YS02001901           JUNCTION     0.35     1.87     8.48     0  01:38        1.87
  YS02001904           JUNCTION     0.33     1.85     8.48     0  01:38        1.85
  YS02001907           JUNCTION     0.66     1.96     8.25     0  01:38        1.96
  YS02001910           JUNCTION     0.45     2.06     8.56     0  01:38        1.85
  YS02001915           JUNCTION     0.25     2.00     8.72     0  01:38        1.70
  YS02001918           JUNCTION     0.13     1.81     8.88     0  01:38        1.43
  YS02001920           JUNCTION     0.20     2.14     9.15     0  01:39        1.53
  YS02001923           JUNCTION     0.09     2.03     9.29     0  01:39        1.31
  YS02001926           JUNCTION     0.13     1.90     9.35     0  01:39        1.15
  YS02001929           JUNCTION     0.07     1.78     9.47     0  01:39        0.92
  YS02006553           JUNCTION     0.66     2.09     8.38     0  01:38        1.97
  YS02006556           JUNCTION     0.63     2.22     8.53     0  01:38        1.92
  YS02006558           JUNCTION     0.68     2.29     8.56     0  01:38        1.97
  YS02006561           JUNCTION     0.12     1.55     8.21     0  01:38        0.88
  YS02163301           JUNCTION     0.39     1.94     8.46     0  01:39        1.89
  YS02163601           JUNCTION     0.49     2.08     8.48     0  01:39        2.00
  YS02164001           JUNCTION     0.42     2.00     8.46     0  01:39        1.92
  CC-1                 OUTFALL      0.00     0.00     0.00     0  00:00        0.00
  CC-2                 OUTFALL      0.00     0.00     0.00     0  00:00        0.00
  JK-1                 OUTFALL      0.00     0.00     0.00     0  00:00        0.00
  JK-2                 OUTFALL      0.00     0.00     0.00     0  00:00        0.00
  WSC                  OUTFALL      0.19     0.29     0.96     0  02:06        0.29
  CC-storage           STORAGE      0.81     1.43     6.93     0  02:07        1.43
  JK-storage           STORAGE      3.04     4.09     4.89     0  02:20        4.09
  
  
  *******************
  Node Inflow Summary
  *******************
  
  -------------------------------------------------------------------------------------------------
                                  Maximum  Maximum                  Lateral       Total        Flow
                                  Lateral    Total  Time of Max      Inflow      Inflow     Balance
                                   Inflow   Inflow   Occurrence      Volume      Volume       Error
  Node                 Type           LPS      LPS  days hr:min    10^6 ltr    10^6 ltr     Percent
  -------------------------------------------------------------------------------------------------
  WS02003060           JUNCTION     16.53   539.16     0  02:03       0.476         5.7       0.037
  WS02003066           JUNCTION      0.00   522.17     0  02:03           0        5.23       0.025
  WS02003067           JUNCTION      0.00   521.96     0  02:03           0        5.23       0.078
  WS02003069           JUNCTION      0.32   539.55     0  02:04     0.00922        5.71       0.064
  WS02003072           JUNCTION      0.00   538.76     0  02:04           0         5.7       0.115
  WS02003073           JUNCTION      1.82   539.82     0  02:05      0.0524        5.75       0.093
  WS02004401           JUNCTION      0.00   535.99     0  02:47           0        5.33       0.186
  WS02004402           JUNCTION      0.00   532.67     0  02:00           0        5.32       0.190
  WS02004403           JUNCTION      0.00   532.03     0  02:00           0        5.31       0.186
  WS02004404           JUNCTION      0.16   531.60     0  02:01     0.00467         5.3       0.156
  WS02004405           JUNCTION      0.04   531.90     0  02:01      0.0011         5.3       0.233
  WS02004406           JUNCTION      0.00   532.06     0  02:01           0        5.28       0.386
  WS02004407           JUNCTION      0.00   531.43     0  02:01           0        5.26       0.018
  WS02004409           JUNCTION      0.00   531.02     0  02:01           0        5.26       0.046
  WS02004410           JUNCTION      0.00   527.94     0  02:02           0        5.26       0.077
  WS02004411           JUNCTION      0.00   526.02     0  02:02           0        5.26       0.100
  WS02004412           JUNCTION      0.00   524.20     0  02:02           0        5.25       0.136
  WS02004413           JUNCTION      0.00   522.80     0  02:03           0        5.24       0.243
  WS02006109           JUNCTION      1.23   558.88     0  01:54      0.0354        5.37       0.140
  WS02006110           JUNCTION      0.00   559.79     0  01:54           0        5.37       0.119
  WS02006111           JUNCTION      0.00   560.73     0  02:47           0        5.36       0.011
  WS02006112           JUNCTION      0.00   542.54     0  01:50           0        5.36       0.329
  WS02006113           JUNCTION      0.00   566.40     0  01:54           0        5.36       0.032
  WS02006115           JUNCTION      0.00   549.86     0  02:46           0        5.34       0.116
  WS02006116           JUNCTION      0.00   538.44     0  02:50           0        5.33       0.104
  WS02006228           JUNCTION      0.00   556.56     0  02:05           0        5.34       0.029
  WS02006229           JUNCTION      0.00   556.43     0  01:54           0        5.34       0.092
  WS02006230           JUNCTION     10.28   588.15     0  02:20       0.296        5.35       0.057
  WS02006231           JUNCTION      0.00   596.14     0  02:19           0        5.05      -0.025
  WS02006232           JUNCTION      0.00   594.09     0  02:19           0        5.06       0.211
  WS02006234           JUNCTION      0.00   585.15     0  02:19           0        5.05      -0.194
  WS02006235           JUNCTION      0.00   569.00     0  02:19           0        5.11       0.202
  WS02006238           JUNCTION      0.00   426.50     0  02:10           0        4.42      -0.178
  WS02006239           JUNCTION      0.00   425.17     0  02:10           0        4.38      -0.215
  WS02006240           JUNCTION      0.00   421.68     0  02:10           0        4.36      -0.047
  WS02006242           JUNCTION      0.00   420.98     0  02:10           0        4.34      -0.003
  WS02006243           JUNCTION      0.00   421.22     0  02:10           0        4.33      -0.081
  WS02006245           JUNCTION      0.00   421.74     0  02:10           0        4.34       0.210
  WS02006247           JUNCTION      0.00   421.84     0  02:10           0        4.33       0.008
  WS02006248           JUNCTION      0.00   421.99     0  02:10           0        4.33       0.017
  WS02006249           JUNCTION      0.00   459.02     0  00:00           0        4.47       0.143
  WS02006251           JUNCTION      0.08   407.21     0  02:20     0.00222        4.47       0.019
  WS02006252           JUNCTION      0.00   400.00     0  00:00           0        4.47      -0.073
  WS02006256           JUNCTION      0.00   300.00     0  00:00           0           1      -0.977
  WSF200               JUNCTION      0.00   522.30     0  02:03           0        5.22       0.006
  YS02001580           JUNCTION      0.00   238.47     0  01:37           0     0.00484       1.143
  YS02001583           JUNCTION      0.00   263.06     0  01:37           0      0.0147     -13.365
  YS02001586           JUNCTION    424.01   424.16     0  01:43        1.14        1.15       0.162
  YS02001590           JUNCTION      0.00   317.93     0  01:41           0        1.06      -0.050
  YS02001593           JUNCTION      0.00   317.95     0  01:47           0        1.06       0.015
  YS02001596           JUNCTION      0.00   318.01     0  01:41           0        1.06      -0.005
  YS02001600           JUNCTION      0.00   318.11     0  01:41           0        1.06      -0.001
  YS02001601           JUNCTION    821.73  1139.14     0  01:41        1.61        2.67       0.011
  YS02001602           JUNCTION      0.00   595.96     0  01:37           0        1.92       0.015
  YS02001605           JUNCTION      0.00   595.94     0  01:37           0        1.85       0.019
  YS02001607           JUNCTION      0.00   595.89     0  01:37           0        1.85       0.083
  YS02001610           JUNCTION      0.00   565.26     0  01:37           0        1.85       0.110
  YS02001613           JUNCTION      0.00   533.51     0  01:37           0        1.64       0.090
  YS02001616           JUNCTION      0.00   487.94     0  01:37           0        1.64       0.011
  YS02001619           JUNCTION    744.04   926.62     0  01:37        1.81        3.45      -0.005
  YS02001622           JUNCTION      0.00   852.05     0  01:37           0        3.45      -0.001
  YS02001625           JUNCTION      0.00   845.34     0  01:58           0        3.45       0.257
  YS02001629           JUNCTION      0.00   844.50     0  01:58           0        3.13       0.010
  YS02001633           JUNCTION    603.36  1345.93     0  01:38        1.17        4.29       0.077
  YS02001641           JUNCTION      0.00  1345.35     0  01:38           0        4.29       0.061
  YS02001644           JUNCTION    544.44  1853.08     0  01:38        1.01         5.3       0.062
  YS02001647           JUNCTION      0.00  1852.60     0  01:38           0        5.28       0.001
  YS02001649           JUNCTION      0.00  2188.46     0  01:39           0        6.19       0.005
  YS02001652           JUNCTION      0.00   625.85     0  01:42           0        0.91      -0.253
  YS02001655           JUNCTION      0.15   766.78     0  01:39     0.00443       0.911      -0.020
  YS02001658           JUNCTION      0.00   696.90     0  01:47           0       0.905      -0.076
  YS02001661           JUNCTION      0.00   535.34     0  01:40           0       0.906       0.044
  YS02001664           JUNCTION    531.64   531.64     0  01:40       0.906       0.906      -0.009
  YS02001745           JUNCTION    363.56   363.56     0  01:39       0.558       0.558       0.289
  YS02001748           JUNCTION      0.04   584.39     0  01:40      0.0013       0.561      -0.399
  YS02001751           JUNCTION      0.01   507.36     0  01:43    0.000317       0.568       0.132
  YS02001754           JUNCTION      0.26   439.50     0  01:41     0.00749       0.578      -0.368
  YS02001757           JUNCTION      0.00  3326.88     0  01:42           0        8.73       0.069
  YS02001759           JUNCTION    497.98  1211.45     0  01:40       0.768        1.96      -0.018
  YS02001762           JUNCTION      0.00   714.43     0  01:40           0        1.19      -0.005
  YS02001765           JUNCTION      0.00   712.05     0  01:40           0        1.19       0.002
  YS02001767           JUNCTION      0.54   710.84     0  01:40      0.0154        1.19       0.003
  YS02001770           JUNCTION    695.11   708.23     0  01:40        1.18        1.22      -0.017
  YS02001774           JUNCTION      0.00   433.87     0  01:39           0      0.0651       1.508
  YS02001779           JUNCTION      0.01   435.40     0  01:39    0.000144      0.0226      -1.615
  YS02001783           JUNCTION      0.00  1153.53     0  01:39           0         3.3       0.005
  YS02001784           JUNCTION      1.06  1154.62     0  01:39      0.0305        3.33       0.014
  YS02001786           JUNCTION      0.06  1154.65     0  01:39     0.00162        3.33       0.019
  YS02001788           JUNCTION      0.07  1158.18     0  01:39     0.00204        3.33       0.009
  YS02001790           JUNCTION      0.15  1168.04     0  01:40     0.00446        3.33       0.027
  YS02001791           JUNCTION      0.00  1282.27     0  01:42           0        3.33      -0.024
  YS02001793           JUNCTION      0.00  1234.06     0  01:42           0        3.33       0.009
  YS02001882           JUNCTION      0.00    80.80     0  01:37           0      0.0122       4.630
  YS02001884           JUNCTION      0.00   127.33     0  01:37           0      0.0476       5.308
  YS02001887           JUNCTION    567.42   579.85     0  01:37       0.813       0.846       0.514
  YS02001890           JUNCTION      0.00   584.31     0  01:37           0       0.806       0.607
  YS02001895           JUNCTION      0.00   575.54     0  01:38           0       0.798       0.192
  YS02001898           JUNCTION      0.00   577.46     0  01:38           0       0.796      -0.018
  YS02001901           JUNCTION      0.00   579.93     0  01:38           0       0.799       0.405
  YS02001904           JUNCTION      0.00   580.70     0  01:38           0       0.812       0.319
  YS02001907           JUNCTION      0.00  1552.65     0  01:40           0         2.6       0.657
  YS02001910           JUNCTION      0.00  1027.05     0  01:40           0         1.8       0.389
  YS02001915           JUNCTION    592.49  1026.98     0  01:40        1.12        1.86       0.081
  YS02001918           JUNCTION      0.00   709.20     0  01:38           0       0.768      -0.005
  YS02001920           JUNCTION      2.87   691.31     0  01:38      0.0827       0.738       0.130
  YS02001923           JUNCTION      0.04   721.42     0  01:38     0.00109       0.636      -0.092
  YS02001926           JUNCTION      0.05  1095.65     0  01:39      0.0015       0.615      -0.053
  YS02001929           JUNCTION    278.07   867.06     0  01:39       0.591       0.597      -0.056
  YS02006553           JUNCTION      0.00   788.92     0  01:54           0        2.17       0.540
  YS02006556           JUNCTION      0.00   788.53     0  01:53           0        2.18       0.353
  YS02006558           JUNCTION    712.06  1184.06     0  01:38        1.19        3.34       0.105
  YS02006561           JUNCTION      0.00  1183.45     0  01:38           0         3.3      -0.002
  YS02163301           JUNCTION      0.00   845.48     0  02:00           0        3.13       0.041
  YS02163601           JUNCTION      0.11  1345.49     0  01:38     0.00317        4.29       0.110
  YS02164001           JUNCTION      0.00  1345.09     0  01:38           0        4.29       0.047
  CC-1                 OUTFALL       0.00   683.00     0  00:00           0        3.04       0.000
  CC-2                 OUTFALL       0.00   683.00     0  00:00           0        2.04       0.000
  JK-1                 OUTFALL       0.00  1000.00     0  00:00           0        1.09       0.000
  JK-2                 OUTFALL       0.00  1000.00     0  00:00           0        1.24       0.000
  WSC                  OUTFALL       0.00   538.29     0  02:06           0        5.74       0.000
  CC-storage           STORAGE       0.00  3329.65     0  01:42           0        10.9      -0.277
  JK-storage           STORAGE       0.00  1237.49     0  01:45           0        3.48       0.017
  
  
  **********************
  Node Surcharge Summary
  **********************
  
  Surcharging occurs when water rises above the top of the highest conduit.
  ---------------------------------------------------------------------
                                               Max. Height   Min. Depth
                                   Hours       Above Crown    Below Rim
  Node                 Type      Surcharged         Meters       Meters
  ---------------------------------------------------------------------
  WS02006109           JUNCTION        1.67          0.320        1.500
  WS02006110           JUNCTION        0.41          0.257        1.593
  WS02006112           JUNCTION        0.38          0.057        1.623
  WS02006228           JUNCTION        1.67          0.346        1.854
  WS02006229           JUNCTION        1.69          0.423        2.027
  WS02006230           JUNCTION        0.42          0.332        1.238
  WS02006231           JUNCTION        0.52          0.428        1.102
  WS02006232           JUNCTION        1.79          0.556        0.924
  WS02006234           JUNCTION        0.86          0.558        0.682
  WS02006235           JUNCTION        1.66          0.777        0.513
  WS02006238           JUNCTION        1.73          0.818        0.612
  WS02006239           JUNCTION        1.66          0.786        0.504
  WS02006240           JUNCTION        1.68          0.754        0.636
  WS02006242           JUNCTION        1.77          0.773        0.047
  WS02006243           JUNCTION        1.69          0.661        0.109
  WS02006245           JUNCTION        1.68          0.590        0.260
  WS02006247           JUNCTION        1.70          0.579        0.181
  WS02006248           JUNCTION        1.67          0.380        0.000
  WS02006249           JUNCTION        1.69          0.390        0.000
  WS02006251           JUNCTION        0.57          0.336        0.844
  WS02006252           JUNCTION        2.22          1.100        0.000
  WS02006256           JUNCTION        5.75          2.050        0.000
  YS02001580           JUNCTION        0.41          0.450        0.000
  YS02001583           JUNCTION        0.42          0.500        0.000
  YS02001586           JUNCTION        0.56          0.510        0.000
  YS02001590           JUNCTION        0.63          0.750        0.000
  YS02001593           JUNCTION        0.63          0.840        0.000
  YS02001596           JUNCTION        0.71          1.070        0.000
  YS02001600           JUNCTION        0.83          1.190        0.000
  YS02001601           JUNCTION        1.19          1.440        0.000
  YS02001602           JUNCTION        1.06          1.270        0.000
  YS02001605           JUNCTION        1.01          1.180        0.000
  YS02001607           JUNCTION        0.58          0.680        0.000
  YS02001610           JUNCTION        0.60          0.680        0.000
  YS02001613           JUNCTION        0.57          0.700        0.000
  YS02001616           JUNCTION        0.54          0.610        0.000
  YS02001619           JUNCTION        0.53          0.610        0.000
  YS02001622           JUNCTION        0.52          0.620        0.000
  YS02001625           JUNCTION        0.68          0.780        0.000
  YS02001629           JUNCTION        0.47          0.470        0.000
  YS02001633           JUNCTION        0.69          1.039        0.021
  YS02001641           JUNCTION        0.63          0.983        0.117
  YS02001644           JUNCTION        0.60          0.920        0.000
  YS02001647           JUNCTION        0.42          0.824        0.076
  YS02001649           JUNCTION        0.52          1.050        0.000
  YS02001652           JUNCTION        0.32          1.130        0.000
  YS02001655           JUNCTION        0.14          1.200        0.000
  YS02001658           JUNCTION        0.02          1.226        0.074
  YS02001751           JUNCTION        0.04          1.200        0.000
  YS02001754           JUNCTION        0.17          1.150        0.000
  YS02001757           JUNCTION        0.57          0.966        0.244
  YS02001759           JUNCTION        0.47          0.926        0.284
  YS02001762           JUNCTION        0.43          1.150        0.000
  YS02001765           JUNCTION        0.39          1.100        0.000
  YS02001767           JUNCTION        0.36          1.030        0.000
  YS02001770           JUNCTION        0.33          0.920        0.000
  YS02001774           JUNCTION        0.42          1.050        0.000
  YS02001779           JUNCTION        0.18          0.680        0.000
  YS02001783           JUNCTION        0.42          0.895        0.705
  YS02001784           JUNCTION        0.40          0.573        0.917
  YS02001786           JUNCTION        0.30          0.397        1.033
  YS02001882           JUNCTION        0.37          0.819        0.011
  YS02001884           JUNCTION        0.38          0.785        0.085
  YS02001887           JUNCTION        0.41          0.807        0.143
  YS02001890           JUNCTION        0.42          0.760        0.000
  YS02001895           JUNCTION        0.36          0.750        0.000
  YS02001898           JUNCTION        0.35          0.740        0.000
  YS02001901           JUNCTION        0.40          0.870        0.000
  YS02001904           JUNCTION        0.39          0.850        0.000
  YS02001907           JUNCTION        0.58          0.950        0.000
  YS02001910           JUNCTION        0.45          1.056        0.044
  YS02001915           JUNCTION        0.37          1.000        0.000
  YS02001918           JUNCTION        0.29          0.810        0.000
  YS02001920           JUNCTION        0.30          1.140        0.000
  YS02001923           JUNCTION        0.01          0.820        0.000
  YS02001926           JUNCTION        0.01          0.900        0.000
  YS02001929           JUNCTION        0.01          0.780        0.000
  YS02006553           JUNCTION        0.59          1.094        0.096
  YS02006556           JUNCTION        0.51          1.177        0.173
  YS02006558           JUNCTION        0.50          1.194        0.206
  YS02006561           JUNCTION        0.25          0.754        0.396
  YS02163301           JUNCTION        0.68          0.943        0.087
  YS02163601           JUNCTION        0.71          1.080        0.000
  YS02164001           JUNCTION        0.64          1.003        0.097
  
  
  *********************
  Node Flooding Summary
  *********************
  
  Flooding refers to all water that overflows a node, whether it ponds or not.
  --------------------------------------------------------------------------
                                                             Total   Maximum
                                 Maximum   Time of Max       Flood    Ponded
                        Hours       Rate    Occurrence      Volume     Depth
  Node                 Flooded       LPS   days hr:min    10^6 ltr    Meters
  --------------------------------------------------------------------------
  WS02006248              0.01     10.25      0  02:34       0.000     0.000
  WS02006249              0.54     96.75      0  01:46       0.129     0.000
  WS02006252              0.01    245.63      0  00:00       0.000     0.000
  WS02006256              0.93    293.19      0  00:00       0.293     0.000
  YS02001580              0.01    225.54      0  01:37       0.001     0.000
  YS02001583              0.01    238.15      0  01:37       0.000     0.000
  YS02001586              0.30    169.72      0  01:37       0.074     0.000
  YS02001590              0.01    161.53      0  01:36       0.000     0.000
  YS02001593              0.01    106.80      0  01:36       0.000     0.000
  YS02001596              0.01     74.00      0  01:35       0.000     0.000
  YS02001600              0.01     11.10      0  01:36       0.000     0.000
  YS02001601              0.50    741.34      0  01:41       0.749     0.000
  YS02001602              0.37     62.02      0  01:53       0.074     0.000
  YS02001605              0.01     11.19      0  01:37       0.000     0.000
  YS02001607              0.01    322.64      0  01:37       0.002     0.000
  YS02001610              0.31    256.60      0  01:43       0.206     0.000
  YS02001613              0.01    183.14      0  01:37       0.000     0.000
  YS02001616              0.01    261.33      0  01:37       0.001     0.000
  YS02001619              0.01    182.94      0  01:37       0.000     0.000
  YS02001622              0.01    168.50      0  01:37       0.000     0.000
  YS02001625              0.27    725.23      0  01:42       0.312     0.000
  YS02001629              0.02    228.42      0  01:37       0.002     0.000
  YS02001644              0.01     43.83      0  01:39       0.000     0.000
  YS02001649              0.01     38.49      0  01:39       0.000     0.000
  YS02001652              0.01     41.82      0  01:39       0.000     0.000
  YS02001655              0.01    537.31      0  01:39       0.001     0.000
  YS02001751              0.01    362.99      0  01:40       0.000     0.000
  YS02001754              0.01    104.02      0  01:40       0.000     0.000
  YS02001762              0.01    195.65      0  01:39       0.000     0.000
  YS02001765              0.01     20.05      0  01:39       0.000     0.000
  YS02001767              0.01    103.21      0  01:39       0.000     0.000
  YS02001770              0.01    132.04      0  01:39       0.000     0.000
  YS02001774              0.01     12.55      0  01:39       0.000     0.000
  YS02001779              0.01    418.54      0  01:39       0.005     0.000
  YS02001890              0.04    157.93      0  01:38       0.004     0.000
  YS02001895              0.01    117.86      0  01:37       0.000     0.000
  YS02001898              0.01    314.25      0  01:37       0.001     0.000
  YS02001901              0.01     16.67      0  01:38       0.000     0.000
  YS02001904              0.01     91.73      0  01:38       0.000     0.000
  YS02001907              0.23   1108.81      0  01:40       0.419     0.000
  YS02001915              0.01    266.83      0  01:38       0.000     0.000
  YS02001918              0.01    274.54      0  01:38       0.002     0.000
  YS02001920              0.01     46.00      0  01:39       0.000     0.000
  YS02001923              0.01    130.32      0  01:39       0.000     0.000
  YS02001926              0.01    828.36      0  01:39       0.004     0.000
  YS02001929              0.01    663.30      0  01:39       0.002     0.000
  YS02163601              0.01      2.76      0  01:39       0.000     0.000
  
  
  **********************
  Storage Volume Summary
  **********************
  
  ------------------------------------------------------------------------------------------------
                         Average    Avg   Evap  Exfil     Maximum    Max    Time of Max    Maximum
                          Volume   Pcnt   Pcnt   Pcnt      Volume   Pcnt     Occurrence    Outflow
  Storage Unit           1000 m³   Full   Loss   Loss     1000 m³   Full    days hr:min        LPS
  ------------------------------------------------------------------------------------------------
  CC-storage               2.253   35.1    0.0    0.0       3.976   62.0       0  02:07    1783.53
  JK-storage               0.153   52.4    0.0    0.0       0.205   70.5       0  02:20    2300.00
  
  
  ***********************
  Outfall Loading Summary
  ***********************
  
  -----------------------------------------------------------
                         Flow       Avg       Max       Total
                         Freq      Flow      Flow      Volume
  Outfall Node           Pcnt       LPS       LPS    10^6 ltr
  -----------------------------------------------------------
  CC-1                  14.23    683.00    683.00       3.037
  CC-2                   9.75    683.00    683.00       2.035
  JK-1                   3.84   1000.00   1000.00       1.094
  JK-2                   4.73   1000.00   1000.00       1.238
  WSC                   99.96    266.96    538.29       5.745
  -----------------------------------------------------------
  System                26.50   3632.96   3845.46      13.149
  
  
  ********************
  Link Flow Summary
  ********************
  
  -----------------------------------------------------------------------------
                                 Maximum  Time of Max   Maximum    Max/    Max/
                                  |Flow|   Occurrence   |Veloc|    Full    Full
  Link                 Type          LPS  days hr:min     m/sec    Flow   Depth
  -----------------------------------------------------------------------------
  1                    CONDUIT    538.29     0  02:06      2.80    0.19    0.29
  WS02003060WS02003069 CONDUIT    539.23     0  02:04      1.63    0.21    0.33
  WS02003066WSF200     CONDUIT    522.30     0  02:03      2.83    0.09    0.22
  WS02003067WS02003066 CONDUIT    522.17     0  02:03      1.19    0.17    0.41
  WS02003069WS02003072 CONDUIT    538.76     0  02:04      1.36    0.26    0.38
  WS02003072WS02003073 CONDUIT    538.00     0  02:05      1.42    1.16    0.37
  WS02004401WS02004402 CONDUIT    532.67     0  02:00      0.98    0.64    0.86
  WS02004402WS02004403 CONDUIT    532.03     0  02:00      0.97    0.76    0.88
  WS02004403WS02004404 CONDUIT    531.44     0  02:01      0.92    0.38    0.92
  WS02004404WS02004405 CONDUIT    531.86     0  02:01      1.08    5.21    0.96
  WS02004405WS02004406 CONDUIT    532.06     0  02:01      0.99    1.05    0.95
  WS02004406WS02004407 CONDUIT    531.43     0  02:01      1.03    0.24    0.62
  WS02004407WS02004409 CONDUIT    531.02     0  02:01      1.53    0.19    0.47
  WS02004409WS02004410 CONDUIT    527.94     0  02:02      1.00    0.68    0.66
  WS02004410WS02004411 CONDUIT    526.02     0  02:02      0.95    0.72    0.68
  WS02004411WS02004412 CONDUIT    524.20     0  02:02      0.91    0.74    0.69
  WS02004412WS02004413 CONDUIT    522.80     0  02:03      0.81    0.35    0.77
  WS02004413WS02003067 CONDUIT    521.96     0  02:03      1.09    0.22    0.59
  WS02006109WS02006110 CONDUIT    559.79     0  01:54      1.11    1.08    1.00
  WS02006110WS02006113 CONDUIT    566.40     0  01:54      1.37    0.52    0.78
  WS02006111WS02006112 CONDUIT    542.54     0  01:50      1.81    0.26    0.67
  WS02006112WS02006115 CONDUIT    549.86     0  02:46      0.81    0.32    0.87
  WS02006113WS02006111 CONDUIT    560.73     0  02:47      2.46    0.67    0.46
  WS02006115WS02006116 CONDUIT    538.44     0  02:50      0.98    0.69    0.75
  WS02006116WS02004401 CONDUIT    535.99     0  02:47      0.98    0.74    0.83
  WS02006228WS02006109 CONDUIT    557.65     0  01:54      1.11    2.44    1.00
  WS02006229WS02006228 CONDUIT    556.56     0  02:05      1.14    1.84    1.00
  WS02006230WS02006229 CONDUIT    556.43     0  01:54      1.45   12.38    1.00
  WS02006231WS02006230 CONDUIT    577.87     0  02:20      1.58    8.77    1.00
  WS02006232WS02006231 CONDUIT    596.14     0  02:19      1.56    1.25    1.00
  WS02006234WS02006232 CONDUIT    594.09     0  02:19      1.54    1.20    1.00
  WS02006235WS02006234 CONDUIT    585.15     0  02:19      1.52    6.17    1.00
  WS02006238WS02006235 CONDUIT    427.20     0  02:10      1.51    0.95    1.00
  WS02006239WS02006238 CONDUIT    426.50     0  02:10      1.11    1.36    1.00
  WS02006240WS02006239 CONDUIT    425.17     0  02:10      1.24    1.34    1.00
  WS02006242WS02006240 CONDUIT    421.68     0  02:10      1.13    1.67    1.00
  WS02006243WS02006242 CONDUIT    420.98     0  02:10      1.40    0.90    1.00
  WS02006245WS02006243 CONDUIT    421.22     0  02:10      1.45    1.25    1.00
  WS02006247WS02006245 CONDUIT    421.74     0  02:10      1.43    3.34    1.00
  WS02006248WS02006247 CONDUIT    421.84     0  02:10      1.44    0.92    1.00
  WS02006249WS02006248 CONDUIT    421.99     0  02:10      1.36    2.31    1.00
  WS02006251WS02006249 CONDUIT    459.02     0  00:00      1.99    1.32    1.00
  WS02006252WS02006251 CONDUIT    407.13     0  02:20     26.93    1.49    1.00
  WS02006256WS02006235 CONDUIT    288.91     0  00:00      4.23    3.06    1.00
  WSF200WS02003060     CONDUIT    522.63     0  02:03      2.05    0.12    0.28
  YS02001580YS02001583 CONDUIT    238.47     0  01:37      1.05    0.92    1.00
  YS02001583YS02001586 CONDUIT    251.29     0  01:37      1.14    0.38    1.00
  YS02001586YS02001590 CONDUIT    317.93     0  01:41      1.33    0.56    1.00
  YS02001590YS02001593 CONDUIT    317.95     0  01:47      1.12    2.00    1.00
  YS02001593YS02001596 CONDUIT    318.01     0  01:41      1.72    0.50    1.00
  YS02001596YS02001600 CONDUIT    318.11     0  01:41      1.19    0.62    1.00
  YS02001600YS02001601 CONDUIT    317.83     0  01:44      1.12    0.55    1.00
  YS02001601YS02001602 CONDUIT    595.96     0  01:37      2.11    2.15    1.00
  YS02001602YS02001605 CONDUIT    595.94     0  01:37      2.11   12.61    1.00
  YS02001605YS02001607 CONDUIT    595.89     0  01:37      2.11    3.27    1.00
  YS02001607YS02001610 CONDUIT    565.26     0  01:37      0.78    0.54    1.00
  YS02001610YS02001613 CONDUIT    533.51     0  01:37      0.72    0.62    1.00
  YS02001613YS02001616 CONDUIT    487.94     0  01:37      0.70    0.42    1.00
  YS02001616YS02001619 CONDUIT    485.57     0  02:06      0.67    0.84    1.00
  YS02001619YS02001622 CONDUIT    852.05     0  01:37      1.43    1.26    1.00
  YS02001622YS02001625 CONDUIT    845.34     0  01:58      1.08    0.45    1.00
  YS02001625YS02001629 CONDUIT    844.50     0  01:58      1.08    0.40    1.00
  YS02001629YS02163301 CONDUIT    845.48     0  02:00      1.08    1.04    1.00
  YS02001633YS02163601 CONDUIT   1345.38     0  01:38      1.71    1.41    1.00
  YS02001641YS02001644 CONDUIT   1345.58     0  01:38      1.71    4.35    1.00
  YS02001644YS02001647 CONDUIT   1852.60     0  01:38      2.36    1.09    1.00
  YS02001647YS02001649 CONDUIT   1882.56     0  01:38      2.40    0.99    1.00
  YS02001649YS02001757 CONDUIT   2188.39     0  01:39      2.79    1.33    1.00
  YS02001652YS02001649 CONDUIT    625.36     0  01:42      0.97    0.31    1.00
  YS02001655YS02001652 CONDUIT    625.85     0  01:42      1.78    0.30    1.00
  YS02001658YS02001655 CONDUIT    766.62     0  01:39      2.14    0.33    1.00
  YS02001661YS02001658 CONDUIT    696.90     0  01:47      2.45    0.27    0.89
  YS02001664YS02001661 CONDUIT    535.34     0  01:40      2.37    0.17    0.56
  YS02001745YS02001748 CONDUIT    568.89     0  01:43      2.33    0.22    0.68
  YS02001748YS02001751 CONDUIT    507.35     0  01:43      1.94    0.26    1.00
  YS02001751YS02001754 CONDUIT    439.24     0  01:41      1.80    0.21    1.00
  YS02001754YS02001757 CONDUIT    440.88     0  01:41      0.75    0.18    1.00
  YS02001757CaochengTiaoxuchi CONDUIT   3329.65     0  01:42      4.42    1.44    1.00
  YS02001759YS02001757 CONDUIT   1213.05     0  01:40      1.54    0.86    1.00
  YS02001762YS02001759 CONDUIT    717.03     0  01:40      0.91    0.83    1.00
  YS02001765YS02001762 CONDUIT    714.43     0  01:40      0.91    0.67    1.00
  YS02001767YS02001765 CONDUIT    712.05     0  01:40      0.91    0.90    1.00
  YS02001770YS02001767 CONDUIT    710.30     0  01:40      1.02    2.81    1.00
  YS02001774YS02001770 CONDUIT    433.87     0  01:39      0.55    0.28    1.00
  YS02001779YS02001774 CONDUIT    435.39     0  01:39      0.56    0.22    1.00
  YS02001783YS02001784 CONDUIT   1153.56     0  01:39      2.29    1.59    1.00
  YS02001784YS02001785 CONDUIT   1154.59     0  01:39      2.30    2.69    1.00
  YS02001786YS02001788 CONDUIT   1158.11     0  01:39      2.49    2.23    0.89
  YS02001788YS02001790 CONDUIT   1167.89     0  01:40      2.71    0.86    0.84
  YS02001790YS02001791 CONDUIT   1282.27     0  01:42      3.41    1.40    0.70
  YS02001791YS02001793 CONDUIT   1234.06     0  01:42      6.72    0.53    0.42
  YS02001793JiankangQianchi CONDUIT   1237.49     0  01:45      2.49    0.10    0.63
  YS02001882YS02001884 CONDUIT     80.80     0  01:37      0.14    0.09    1.00
  YS02001884YS02001887 CONDUIT    127.33     0  01:37      0.17    0.17    1.00
  YS02001887YS02001890 CONDUIT    584.31     0  01:37      0.74    1.00    1.00
  YS02001890YS02001895 CONDUIT    575.54     0  01:38      0.73    0.27    1.00
  YS02001895YS02001898 CONDUIT    577.46     0  01:38      0.74    1.00    1.00
  YS02001898YS02001901 CONDUIT    579.93     0  01:38      0.74    0.37    1.00
  YS02001901YS02001904 CONDUIT    580.70     0  01:38      0.74    0.90    1.00
  YS02001904YS02001907 CONDUIT    580.73     0  01:38      0.74    0.20    1.00
  YS02001907YS02006553 CONDUIT    788.92     0  01:54      0.88    0.93    1.00
  YS02001910YS02001907 CONDUIT   1027.07     0  01:40      1.31    0.58    1.00
  YS02001915YS02001910 CONDUIT   1027.05     0  01:40      1.31    0.51    1.00
  YS02001918YS02001915 CONDUIT    709.20     0  01:38      0.92    0.39    1.00
  YS02001920YS02001918 CONDUIT    688.44     0  01:38      0.88    0.67    1.00
  YS02001923YS02001920 CONDUIT    629.54     0  01:38      0.89    0.28    1.00
  YS02001926YS02001923 CONDUIT    883.96     0  01:39      1.33    1.26    1.00
  YS02001929YS02001926 CONDUIT    613.55     0  01:39      1.20    0.29    1.00
  YS02006553YS02006556 CONDUIT    788.53     0  01:53      1.00    0.67    1.00
  YS02006556YS02006558 CONDUIT    790.77     0  01:54      1.01    0.62    1.00
  YS02006558YS02006561 CONDUIT   1183.45     0  01:38      4.19    2.62    1.00
  YS02006561YS02001783 CONDUIT   1153.53     0  01:39      2.29    0.60    1.00
  YS02163301YS02001633 CONDUIT    846.22     0  01:58      1.08    0.80    1.00
  YS02163601YS02164001 CONDUIT   1345.09     0  01:38      1.71    1.19    1.00
  YS02164001YS02001641 CONDUIT   1345.35     0  01:38      1.71    1.84    1.00
  CC-R1                PUMP       683.00     0  00:00              1.00
  CC-R2                PUMP       683.00     0  00:00              1.00
  CC-S1                PUMP       200.00     0  00:00              1.00
  CC-S2                PUMP       200.00     0  00:00              1.00
  JK-R1                PUMP      1000.00     0  00:00              1.00
  JK-R2                PUMP      1000.00     0  00:00              1.00
  JK-S                 PUMP       300.00     0  00:00              1.00
  
  
  ***************************
  Flow Classification Summary
  ***************************
  
  -------------------------------------------------------------------------------------
                      Adjusted    ---------- Fraction of Time in Flow Class ---------- 
                       /Actual         Up    Down  Sub   Sup   Up    Down  Norm  Inlet 
  Conduit               Length    Dry  Dry   Dry   Crit  Crit  Crit  Crit  Ltd   Ctrl  
  -------------------------------------------------------------------------------------
  1                       1.00   0.00  0.00  0.00  0.00  1.00  0.00  0.00  0.47  0.00
  WS02003060WS02003069    1.00   0.00  0.00  0.00  0.98  0.02  0.00  0.00  0.66  0.00
  WS02003066WSF200        1.00   0.13  0.00  0.00  0.00  0.87  0.00  0.00  0.80  0.00
  WS02003067WS02003066    1.00   0.10  0.02  0.00  0.88  0.00  0.00  0.00  0.00  0.00
  WS02003069WS02003072    1.00   0.00  0.00  0.00  0.99  0.01  0.00  0.00  0.75  0.00
  WS02003072WS02003073    1.00   0.00  0.00  0.00  0.00  0.00  0.00  1.00  0.00  0.00
  WS02004401WS02004402    1.00   0.02  0.00  0.00  0.98  0.00  0.00  0.00  0.00  0.00
  WS02004402WS02004403    1.00   0.02  0.00  0.00  0.97  0.00  0.00  0.00  0.00  0.00
  WS02004403WS02004404    1.00   0.00  0.03  0.00  0.97  0.00  0.00  0.00  0.00  0.00
  WS02004404WS02004405    1.00   0.00  0.00  0.00  1.00  0.00  0.00  0.00  0.00  0.00
  WS02004405WS02004406    1.00   0.00  0.00  0.00  1.00  0.00  0.00  0.00  0.00  0.00
  WS02004406WS02004407    1.00   0.00  0.05  0.00  0.95  0.00  0.00  0.00  0.00  0.00
  WS02004407WS02004409    1.00   0.05  0.00  0.00  0.94  0.01  0.00  0.00  0.94  0.00
  WS02004409WS02004410    1.00   0.05  0.00  0.00  0.95  0.00  0.00  0.00  0.03  0.00
  WS02004410WS02004411    1.00   0.05  0.00  0.00  0.95  0.00  0.00  0.00  0.01  0.00
  WS02004411WS02004412    1.00   0.05  0.00  0.00  0.95  0.00  0.00  0.00  0.00  0.00
  WS02004412WS02004413    1.00   0.05  0.00  0.00  0.94  0.00  0.00  0.00  0.01  0.00
  WS02004413WS02003067    1.00   0.06  0.04  0.00  0.00  0.00  0.90  0.00  0.00  0.00
  WS02006109WS02006110    1.00   0.00  0.01  0.00  0.98  0.00  0.01  0.00  0.00  0.00
  WS02006110WS02006113    1.00   0.01  0.01  0.00  0.98  0.00  0.00  0.00  0.00  0.00
  WS02006111WS02006112    1.00   0.02  0.00  0.00  0.98  0.00  0.00  0.00  0.98  0.00
  WS02006112WS02006115    1.00   0.02  0.00  0.00  0.97  0.00  0.00  0.00  0.00  0.00
  WS02006113WS02006111    1.00   0.02  0.00  0.00  0.00  0.98  0.00  0.00  0.15  0.00
  WS02006115WS02006116    1.00   0.02  0.00  0.00  0.97  0.00  0.00  0.01  0.00  0.00
  WS02006116WS02004401    1.00   0.02  0.00  0.00  0.98  0.00  0.00  0.00  0.00  0.00
  WS02006228WS02006109    1.00   0.00  0.00  0.00  1.00  0.00  0.00  0.00  0.01  0.00
  WS02006229WS02006228    1.00   0.00  0.00  0.00  0.99  0.00  0.00  0.01  0.00  0.00
  WS02006230WS02006229    1.00   0.00  0.00  0.00  0.99  0.00  0.00  0.01  0.01  0.00
  WS02006231WS02006230    1.00   0.00  0.00  0.00  0.26  0.00  0.74  0.00  0.00  0.00
  WS02006232WS02006231    1.00   0.00  0.00  0.00  0.99  0.00  0.01  0.00  0.00  0.00
  WS02006234WS02006232    1.00   0.00  0.00  0.00  1.00  0.00  0.00  0.00  0.14  0.00
  WS02006235WS02006234    1.00   0.00  0.00  0.00  0.81  0.00  0.19  0.00  0.00  0.00
  WS02006238WS02006235    1.00   0.00  0.00  0.00  1.00  0.00  0.00  0.00  0.00  0.00
  WS02006239WS02006238    1.00   0.00  0.00  0.00  1.00  0.00  0.00  0.00  0.28  0.00
  WS02006240WS02006239    1.00   0.00  0.00  0.00  0.67  0.00  0.00  0.33  0.02  0.00
  WS02006242WS02006240    1.00   0.00  0.00  0.00  0.99  0.00  0.01  0.00  0.00  0.00
  WS02006243WS02006242    1.00   0.00  0.00  0.00  0.99  0.00  0.00  0.01  0.46  0.00
  WS02006245WS02006243    1.00   0.00  0.00  0.00  0.69  0.00  0.00  0.31  0.01  0.00
  WS02006247WS02006245    1.00   0.00  0.00  0.00  0.99  0.00  0.00  0.01  0.00  0.00
  WS02006248WS02006247    1.00   0.00  0.00  0.00  0.99  0.00  0.00  0.01  0.18  0.00
  WS02006249WS02006248    1.00   0.00  0.00  0.00  0.54  0.00  0.46  0.00  0.00  0.00
  WS02006251WS02006249    1.00   0.00  0.00  0.00  1.00  0.00  0.00  0.00  0.48  0.00
  WS02006252WS02006251    1.00   0.00  0.49  0.00  0.07  0.00  0.44  0.00  0.00  0.00
  WS02006256WS02006235    1.00   0.00  0.00  0.00  0.99  0.01  0.00  0.00  0.00  0.00
  WSF200WS02003060        1.00   0.00  0.13  0.00  0.25  0.62  0.00  0.00  0.40  0.00
  YS02001580YS02001583    1.00   0.20  0.63  0.00  0.17  0.00  0.00  0.00  0.72  0.00
  YS02001583YS02001586    1.00   0.45  0.33  0.00  0.23  0.00  0.00  0.00  0.72  0.00
  YS02001586YS02001590    1.00   0.13  0.00  0.00  0.38  0.04  0.00  0.45  0.34  0.00
  YS02001590YS02001593    1.00   0.13  0.01  0.00  0.09  0.00  0.77  0.00  0.00  0.00
  YS02001593YS02001596    1.00   0.14  0.00  0.00  0.10  0.01  0.00  0.75  0.02  0.00
  YS02001596YS02001600    1.00   0.14  0.00  0.00  0.17  0.02  0.00  0.67  0.06  0.00
  YS02001600YS02001601    1.00   0.13  0.01  0.00  0.86  0.00  0.00  0.00  0.63  0.00
  YS02001601YS02001602    1.00   0.13  0.01  0.00  0.86  0.00  0.00  0.00  0.00  0.00
  YS02001602YS02001605    1.00   0.14  0.00  0.00  0.86  0.00  0.00  0.00  0.00  0.00
  YS02001605YS02001607    1.00   0.14  0.00  0.00  0.86  0.00  0.00  0.00  0.00  0.00
  YS02001607YS02001610    1.00   0.13  0.01  0.00  0.86  0.00  0.00  0.00  0.02  0.00
  YS02001610YS02001613    1.00   0.13  0.00  0.00  0.87  0.00  0.00  0.00  0.01  0.00
  YS02001613YS02001616    1.00   0.13  0.00  0.00  0.87  0.00  0.00  0.00  0.01  0.00
  YS02001616YS02001619    1.00   0.13  0.00  0.00  0.87  0.00  0.00  0.00  0.00  0.00
  YS02001619YS02001622    1.00   0.13  0.00  0.00  0.87  0.00  0.00  0.00  0.31  0.00
  YS02001622YS02001625    1.00   0.13  0.00  0.00  0.87  0.00  0.00  0.00  0.05  0.00
  YS02001625YS02001629    1.00   0.13  0.05  0.00  0.13  0.00  0.69  0.00  0.00  0.00
  YS02001629YS02163301    1.00   0.16  0.01  0.00  0.83  0.00  0.00  0.00  0.00  0.00
  YS02001633YS02163601    1.00   0.00  0.01  0.00  0.99  0.00  0.00  0.00  0.15  0.00
  YS02001641YS02001644    1.00   0.00  0.01  0.00  0.99  0.00  0.00  0.00  0.00  0.00
  YS02001644YS02001647    1.00   0.00  0.18  0.00  0.82  0.00  0.00  0.00  0.00  0.00
  YS02001647YS02001649    1.00   0.00  0.18  0.00  0.53  0.30  0.00  0.00  0.58  0.00
  YS02001649YS02001757    1.00   0.00  0.00  0.00  0.77  0.23  0.00  0.00  0.46  0.00
  YS02001652YS02001649    1.00   0.00  0.00  0.00  0.96  0.04  0.00  0.00  0.75  0.00
  YS02001655YS02001652    1.00   0.00  0.00  0.00  0.14  0.02  0.00  0.84  0.06  0.00
  YS02001658YS02001655    1.00   0.00  0.15  0.00  0.63  0.22  0.00  0.00  0.74  0.00
  YS02001661YS02001658    1.00   0.15  0.00  0.00  0.47  0.38  0.00  0.00  0.77  0.00
  YS02001664YS02001661    1.00   0.13  0.00  0.00  0.77  0.11  0.00  0.00  0.86  0.00
  YS02001745YS02001748    1.00   0.00  0.00  0.00  0.06  0.01  0.00  0.93  0.06  0.00
  YS02001748YS02001751    1.00   0.00  0.00  0.00  0.81  0.19  0.00  0.00  0.80  0.00
  YS02001751YS02001754    1.00   0.00  0.00  0.00  0.13  0.00  0.00  0.87  0.04  0.00
  YS02001754YS02001757    1.00   0.00  0.00  0.00  1.00  0.00  0.00  0.00  0.86  0.00
  YS02001757CaochengTiaoxuchi    1.00   0.00  0.00  0.00  0.98  0.02  0.00  0.00  0.73  0.00
  YS02001759YS02001757    1.00   0.00  0.00  0.00  1.00  0.00  0.00  0.00  0.59  0.00
  YS02001762YS02001759    1.00   0.00  0.00  0.00  1.00  0.00  0.00  0.00  0.05  0.00
  YS02001765YS02001762    1.00   0.00  0.00  0.00  1.00  0.00  0.00  0.00  0.76  0.00
  YS02001767YS02001765    1.00   0.00  0.00  0.00  1.00  0.00  0.00  0.00  0.00  0.00
  YS02001770YS02001767    1.00   0.00  0.00  0.00  1.00  0.00  0.00  0.00  0.00  0.00
  YS02001774YS02001770    1.00   0.00  0.14  0.00  0.68  0.00  0.18  0.00  0.03  0.00
  YS02001779YS02001774    1.00   0.00  0.00  0.00  1.00  0.00  0.00  0.00  0.82  0.00
  YS02001783YS02001784    1.00   0.00  0.18  0.00  0.82  0.00  0.00  0.00  0.57  0.00
  YS02001784YS02001785    1.00   0.00  0.00  0.00  1.00  0.00  0.00  0.00  0.17  0.00
  YS02001786YS02001788    1.00   0.00  0.00  0.00  0.79  0.21  0.00  0.00  0.00  0.00
  YS02001788YS02001790    1.00   0.00  0.00  0.00  0.21  0.79  0.00  0.00  0.85  0.00
  YS02001790YS02001791    1.00   0.00  0.00  0.00  0.01  0.99  0.00  0.00  0.16  0.00
  YS02001791YS02001793    1.00   0.00  0.00  0.00  0.00  1.00  0.00  0.00  0.01  0.00
  YS02001793JiankangQianchi    1.00   0.00  0.00  0.00  0.98  0.02  0.00  0.00  0.97  0.00
  YS02001882YS02001884    1.00   0.16  0.01  0.00  0.83  0.00  0.00  0.00  0.00  0.00
  YS02001884YS02001887    1.00   0.06  0.05  0.00  0.89  0.00  0.00  0.00  0.00  0.00
  YS02001887YS02001890    1.00   0.00  0.00  0.00  0.97  0.00  0.03  0.00  0.00  0.00
  YS02001890YS02001895    1.00   0.00  0.17  0.00  0.83  0.00  0.00  0.00  0.00  0.00
  YS02001895YS02001898    1.00   0.17  0.00  0.00  0.82  0.00  0.01  0.00  0.00  0.00
  YS02001898YS02001901    1.00   0.17  0.00  0.00  0.83  0.00  0.00  0.00  0.01  0.00
  YS02001901YS02001904    1.00   0.17  0.00  0.00  0.83  0.00  0.00  0.00  0.00  0.00
  YS02001904YS02001907    1.00   0.00  0.17  0.00  0.83  0.00  0.00  0.00  0.00  0.00
  YS02001907YS02006553    1.00   0.00  0.02  0.00  0.98  0.00  0.00  0.00  0.00  0.00
  YS02001910YS02001907    1.00   0.00  0.00  0.00  0.97  0.00  0.00  0.03  0.12  0.00
  YS02001915YS02001910    1.00   0.00  0.00  0.00  0.96  0.04  0.00  0.00  0.16  0.00
  YS02001918YS02001915    1.00   0.00  0.01  0.00  0.98  0.02  0.00  0.00  0.77  0.00
  YS02001920YS02001918    1.00   0.00  0.01  0.00  0.99  0.00  0.00  0.00  0.00  0.00
  YS02001923YS02001920    1.00   0.00  0.00  0.00  1.00  0.00  0.00  0.00  0.94  0.00
  YS02001926YS02001923    1.00   0.00  0.07  0.00  0.05  0.00  0.88  0.00  0.00  0.00
  YS02001929YS02001926    1.00   0.00  0.13  0.00  0.87  0.00  0.00  0.00  0.83  0.00
  YS02006553YS02006556    1.00   0.01  0.00  0.00  0.99  0.00  0.00  0.00  0.03  0.00
  YS02006556YS02006558    1.00   0.00  0.00  0.00  1.00  0.00  0.00  0.00  0.00  0.00
  YS02006558YS02006561    1.00   0.18  0.00  0.00  0.04  0.78  0.00  0.00  0.20  0.00
  YS02006561YS02001783    1.00   0.18  0.00  0.00  0.07  0.75  0.00  0.00  0.71  0.00
  YS02163301YS02001633    1.00   0.00  0.16  0.00  0.84  0.00  0.00  0.00  0.00  0.00
  YS02163601YS02164001    1.00   0.00  0.08  0.00  0.92  0.00  0.00  0.00  0.00  0.00
  YS02164001YS02001641    1.00   0.01  0.07  0.00  0.92  0.00  0.00  0.00  0.06  0.00
  
  
  *************************
  Conduit Surcharge Summary
  *************************
  
  ----------------------------------------------------------------------------
                                                           Hours        Hours 
                         --------- Hours Full --------   Above Full   Capacity
  Conduit                Both Ends  Upstream  Dnstream   Normal Flow   Limited
  ----------------------------------------------------------------------------
  WS02003072WS02003073        0.01      0.01      0.01      0.82         0.01
  WS02004404WS02004405        0.01      0.01      0.01      4.02         0.01
  WS02004405WS02004406        0.01      0.01      0.01      0.28         0.01
  WS02006109WS02006110        0.41      0.41      1.79      0.50         0.01
  WS02006110WS02006113        0.01      0.01      1.71      0.01         0.01
  WS02006111WS02006112        0.01      0.01      2.39      0.01         0.01
  WS02006112WS02006115        0.01      0.01      0.38      0.01         0.01
  WS02006228WS02006109        1.67      1.78      1.67      3.12         1.67
  WS02006229WS02006228        1.67      1.69      1.67      2.33         1.66
  WS02006230WS02006229        1.90      2.20      1.90      4.54         1.90
  WS02006231WS02006230        0.42      0.42      0.56      4.25         0.01
  WS02006232WS02006231        0.52      0.52      1.79      0.58         0.01
  WS02006234WS02006232        1.63      1.64      1.79      0.57         0.56
  WS02006235WS02006234        0.85      0.86      1.66      4.14         0.01
  WS02006238WS02006235        1.69      1.69      1.81      0.01         0.01
  WS02006239WS02006238        1.70      1.74      1.73      2.06         1.57
  WS02006240WS02006239        1.66      1.69      1.66      2.05         1.51
  WS02006242WS02006240        1.68      1.68      1.84      2.34         0.01
  WS02006243WS02006242        1.70      1.70      1.77      0.01         0.03
  WS02006245WS02006243        1.68      1.69      1.69      1.65         1.24
  WS02006247WS02006245        1.68      1.71      1.68      3.96         1.68
  WS02006248WS02006247        1.68      1.68      1.70      0.01         0.04
  WS02006249WS02006248        1.67      1.67      1.69      3.95         0.01
  WS02006251WS02006249        1.68      1.69      1.69      2.15         1.62
  WS02006252WS02006251        2.21      2.21      2.21      2.21         0.01
  WS02006256WS02006235        4.14      4.18      5.72      0.93         0.01
  YS02001580YS02001583        0.41      0.41      0.47      0.01         0.01
  YS02001583YS02001586        0.42      0.42      0.56      0.01         0.01
  YS02001586YS02001590        0.57      0.57      0.63      0.01         0.01
  YS02001590YS02001593        0.63      0.63      0.64      0.68         0.01
  YS02001593YS02001596        0.64      0.64      0.71      0.01         0.01
  YS02001596YS02001600        0.74      0.74      0.83      0.01         0.01
  YS02001600YS02001601        0.89      0.89      1.19      0.01         0.01
  YS02001601YS02001602        1.06      1.06      1.24      0.85         0.01
  YS02001602YS02001605        1.01      1.01      1.06      1.99         0.01
  YS02001605YS02001607        0.97      1.01      0.97      1.13         0.97
  YS02001607YS02001610        0.58      0.58      0.60      0.01         0.01
  YS02001610YS02001613        0.57      0.57      0.60      0.01         0.01
  YS02001613YS02001616        0.54      0.54      0.57      0.01         0.01
  YS02001616YS02001619        0.53      0.53      0.54      0.01         0.01
  YS02001619YS02001622        0.52      0.53      0.52      0.67         0.49
  YS02001622YS02001625        0.52      0.52      0.68      0.01         0.01
  YS02001625YS02001629        0.47      0.47      0.68      0.01         0.01
  YS02001629YS02163301        0.67      0.67      0.68      0.21         0.21
  YS02001633YS02163601        0.69      0.69      0.71      0.43         0.42
  YS02001641YS02001644        0.60      0.63      0.60      1.30         0.60
  YS02001644YS02001647        0.42      0.42      0.60      0.03         0.01
  YS02001647YS02001649        0.42      0.42      0.52      0.01         0.01
  YS02001649YS02001757        0.51      0.52      0.57      0.32         0.28
  YS02001652YS02001649        0.36      0.36      0.52      0.01         0.01
  YS02001655YS02001652        0.14      0.14      0.32      0.01         0.01
  YS02001658YS02001655        0.02      0.02      0.14      0.01         0.01
  YS02001661YS02001658        0.01      0.01      0.02      0.01         0.01
  YS02001748YS02001751        0.01      0.01      0.04      0.01         0.01
  YS02001751YS02001754        0.04      0.04      0.17      0.01         0.01
  YS02001754YS02001757        0.21      0.21      0.57      0.01         0.01
  YS02001757CaochengTiaoxuchi        0.47      0.57      1.61      0.30         0.18
  YS02001759YS02001757        0.47      0.47      0.57      0.01         0.01
  YS02001762YS02001759        0.43      0.43      0.47      0.01         0.01
  YS02001765YS02001762        0.39      0.39      0.43      0.01         0.01
  YS02001767YS02001765        0.36      0.36      0.39      0.01         0.01
  YS02001770YS02001767        0.36      0.36      0.36      0.41         0.28
  YS02001774YS02001770        0.33      0.33      0.42      0.01         0.01
  YS02001779YS02001774        0.18      0.18      0.42      0.01         0.01
  YS02001783YS02001784        0.40      0.42      0.40      0.53         0.40
  YS02001784YS02001785        0.30      0.40      0.30      0.71         0.30
  YS02001786YS02001788        0.01      0.30      0.01      0.60         0.01
  YS02001790YS02001791        0.01      0.01      0.01      0.39         0.01
  YS02001793JiankangQianchi        0.01      0.01      7.58      0.01         0.01
  YS02001882YS02001884        0.37      0.37      0.38      0.01         0.01
  YS02001884YS02001887        0.40      0.40      0.41      0.01         0.01
  YS02001887YS02001890        0.42      0.42      0.43      0.01         0.01
  YS02001890YS02001895        0.36      0.36      0.45      0.01         0.01
  YS02001895YS02001898        0.35      0.35      0.36      0.01         0.01
  YS02001898YS02001901        0.36      0.36      0.40      0.01         0.01
  YS02001901YS02001904        0.39      0.39      0.40      0.01         0.01
  YS02001904YS02001907        0.39      0.39      0.59      0.01         0.01
  YS02001907YS02006553        0.72      0.72      0.78      0.01         0.01
  YS02001910YS02001907        0.45      0.45      0.58      0.01         0.01
  YS02001915YS02001910        0.37      0.37      0.45      0.01         0.01
  YS02001918YS02001915        0.29      0.29      0.37      0.01         0.01
  YS02001920YS02001918        0.29      0.29      0.30      0.01         0.01
  YS02001923YS02001920        0.25      0.25      0.30      0.01         0.01
  YS02001926YS02001923        0.01      0.01      0.01      0.01         0.01
  YS02001929YS02001926        0.01      0.01      0.01      0.01         0.01
  YS02006553YS02006556        0.51      0.51      0.59      0.01         0.01
  YS02006556YS02006558        0.55      0.55      0.60      0.01         0.01
  YS02006558YS02006561        0.32      0.50      0.32      0.68         0.32
  YS02006561YS02001783        0.25      0.25      0.42      0.01         0.01
  YS02163301YS02001633        0.68      0.68      0.70      0.01         0.01
  YS02163601YS02164001        0.64      0.64      0.71      0.11         0.01
  YS02164001YS02001641        0.63      0.64      0.63      0.72         0.60
  
  
  ***************
  Pumping Summary
  ***************
  
  ---------------------------------------------------------------------------------------------------------
                                                  Min       Avg       Max     Total     Power    % Time Off
                        Percent   Number of      Flow      Flow      Flow    Volume     Usage    Pump Curve
  Pump                 Utilized   Start-Ups       LPS       LPS       LPS  10^6 ltr     Kw-hr    Low   High
  ---------------------------------------------------------------------------------------------------------
  CC-R1                   15.45           3      0.00    683.00    683.00     3.038     55.66    0.0   12.3
  CC-R2                   10.35           6      0.00    683.00    683.00     2.037     36.99    0.0   18.6
  CC-S1                   44.30           7      0.00    200.00    200.00     2.552     15.69    0.0    0.0
  CC-S2                   33.23          10      0.00    200.00    200.00     1.914     11.94    0.0    0.0
  JK-R1                    3.79           8      0.00   1000.00   1000.00     1.093     10.34    0.0    0.0
  JK-R2                    4.29           6      0.00   1000.00   1000.00     1.236     12.05    0.0    0.0
  JK-S                    11.55          17      0.00    300.00    300.00     0.998     16.03    0.0    0.0
  

  Analysis begun on:  Mon Apr 14 20:59:22 2025
  Analysis ended on:  Mon Apr 14 20:59:24 2025
  Total elapsed time: 00:00:02