
  EPA STORM WATER MANAGEMENT MODEL - VERSION 5.2 (Build 5.2.4)
  PYSWMM TOOLKIT API - VERSION v1.0 (2023-11-27)
  ------------------------------------------------------------

  WARNING 04: minimum elevation drop used for Conduit WS02004404WS02004405
  WARNING 03: negative offset ignored for Link YS02001904YS02001907
  
  ****************
  Analysis Options
  ****************
  Flow Units ............... LPS
  Process Models:
    Rainfall/Runoff ........ YES
    RDII ................... NO
    Snowmelt ............... NO
    Groundwater ............ NO
    Flow Routing ........... YES
    Ponding Allowed ........ NO
    Water Quality .......... NO
  Infiltration Method ...... HORTON
  Flow Routing Method ...... DYNWAVE
  Surcharge Method ......... EXTRAN
  Starting Date ............ 08/28/2015 08:00:00
  Ending Date .............. 08/28/2015 16:00:00
  Antecedent Dry Days ...... 8.0
  Report Time Step ......... 00:01:00
  Wet Time Step ............ 00:01:00
  Dry Time Step ............ 00:01:00
  Routing Time Step ........ 30.00 sec
  Variable Time Step ....... YES
  Maximum Trials ........... 8
  Number of Threads ........ 4
  Head Tolerance ........... 0.001500 m
  
  
  **************************        Volume         Depth
  Runoff Quantity Continuity     hectare-m            mm
  **************************     ---------       -------
  Total Precipitation ......         3.151        94.999
  Evaporation Loss .........         0.000         0.000
  Infiltration Loss ........         0.104         3.134
  Surface Runoff ...........         3.015        90.887
  Final Storage ............         0.033         0.996
  Continuity Error (%) .....        -0.019
  
  
  **************************        Volume        Volume
  Flow Routing Continuity        hectare-m      10^6 ltr
  **************************     ---------     ---------
  Dry Weather Inflow .......         0.025         0.251
  Wet Weather Inflow .......         3.015        30.146
  Groundwater Inflow .......         0.000         0.000
  RDII Inflow ..............         0.000         0.000
  External Inflow ..........         0.083         0.834
  External Outflow .........         1.954        19.537
  Flooding Loss ............         1.223        12.234
  Evaporation Loss .........         0.000         0.000
  Exfiltration Loss ........         0.000         0.000
  Initial Stored Volume ....         0.243         2.431
  Final Stored Volume ......         0.196         1.959
  Continuity Error (%) .....        -0.204
  
  
  *************************
  Highest Continuity Errors
  *************************
  Node YS02001884 (4.58%)
  Node YS02001583 (-4.24%)
  
  
  ***************************
  Time-Step Critical Elements
  ***************************
  Link WS02006252WS02006251 (34.78%)
  Link WS02006238WS02006235 (17.62%)
  Link YS02001791YS02001793 (10.70%)
  Link WS02006235WS02006234 (10.07%)
  Link WS02004404WS02004405 (9.94%)
  
  
  ********************************
  Highest Flow Instability Indexes
  ********************************
  Link WS02006113WS02006111 (54)
  Link WS02006111WS02006112 (27)
  Link WS02006238WS02006235 (18)
  Link WS02006252WS02006251 (16)
  Link YS02001607YS02001610 (15)
  
  
  *********************************
  Most Frequent Nonconverging Nodes
  *********************************
  Node CC-1 (11.28%)
  Node CC-2 (11.28%)
  Node JK-1 (11.28%)
  Node JK-2 (11.28%)
  Node WSC (11.28%)
  
  
  *************************
  Routing Time Step Summary
  *************************
  Minimum Time Step           :     0.01 sec
  Average Time Step           :     2.05 sec
  Maximum Time Step           :     7.04 sec
  % of Time in Steady State   :     0.00
  Average Iterations per Step :     3.12
  % of Steps Not Converging   :    11.28
  Time Step Frequencies       :
     30.000 - 13.228 sec      :     0.00 %
     13.228 -  5.833 sec      :     7.87 %
      5.833 -  2.572 sec      :    20.79 %
      2.572 -  1.134 sec      :    30.15 %
      1.134 -  0.500 sec      :    41.18 %
  
  
  ***************************
  Subcatchment Runoff Summary
  ***************************
  
  ------------------------------------------------------------------------------------------------------------------------------
                            Total      Total      Total      Total     Imperv       Perv      Total       Total     Peak  Runoff
                           Precip      Runon       Evap      Infil     Runoff     Runoff     Runoff      Runoff   Runoff   Coeff
  Subcatchment                 mm         mm         mm         mm         mm         mm         mm    10^6 ltr      LPS
  ------------------------------------------------------------------------------------------------------------------------------
  sub60                     95.00       0.00       0.00       1.89      82.40       9.52      91.92        1.21   714.12   0.968
  sub61                     95.00       0.00       0.00       2.73      77.72      13.42      91.14        1.67   991.92   0.959
  sub62                     95.00       0.00       0.00       1.26      86.12       6.35      92.46        2.53  1399.70   0.973
  sub63                     95.00       0.00       0.00       5.03      66.48      22.52      89.00        2.02  1122.58   0.937
  sub64                     95.00       0.00       0.00       2.55      79.55      11.71      91.25        2.19  1157.99   0.961
  sub65                     95.00       0.00       0.00       2.20      81.40      10.15      91.55        2.52  1297.79   0.964
  sub66                     95.00       0.00       0.00       6.20      66.37      21.35      87.72        4.09  1741.03   0.923
  sub67                     95.00       0.00       0.00       1.21      86.16       6.40      92.55        1.72  1060.18   0.974
  sub68                     95.00       0.00       0.00       2.27      80.52      11.04      91.55        2.52  1434.96   0.964
  sub69                     95.00       0.00       0.00       2.04      80.64      12.22      92.86        3.44  1726.27   0.977
  sub70                     95.00       0.00       0.00       6.74      62.53      25.56      88.09        2.54   983.33   0.927
  sub71                     95.00       0.00       0.00       1.29      86.07       6.31      92.39        2.42  1252.56   0.972
  sub72                     95.00       0.00       0.00       1.15      86.95       5.50      92.45        1.27   612.63   0.973
  
  
  ******************
  Node Depth Summary
  ******************
  
  ---------------------------------------------------------------------------------
                                 Average  Maximum  Maximum  Time of Max    Reported
                                   Depth    Depth      HGL   Occurrence   Max Depth
  Node                 Type       Meters   Meters   Meters  days hr:min      Meters
  ---------------------------------------------------------------------------------
  WS02003060           JUNCTION     0.26     0.38     5.32     0  02:18        0.38
  WS02003066           JUNCTION     0.21     0.30     5.85     0  02:18        0.30
  WS02003067           JUNCTION     0.54     0.70     6.02     0  02:17        0.70
  WS02003069           JUNCTION     0.29     0.43     5.01     0  02:18        0.43
  WS02003072           JUNCTION     0.36     0.50     4.87     0  02:19        0.50
  WS02003073           JUNCTION     0.20     0.30     4.36     0  02:19        0.30
  WS02004401           JUNCTION     0.63     0.85     6.85     0  02:15        0.85
  WS02004402           JUNCTION     0.66     0.88     6.84     0  02:15        0.88
  WS02004403           JUNCTION     0.68     0.89     6.82     0  02:15        0.89
  WS02004404           JUNCTION     0.76     0.96     6.81     0  02:16        0.96
  WS02004405           JUNCTION     0.75     0.96     6.81     0  02:16        0.96
  WS02004406           JUNCTION     0.76     0.96     6.79     0  02:16        0.96
  WS02004407           JUNCTION     0.20     0.30     6.61     0  02:16        0.30
  WS02004409           JUNCTION     0.44     0.67     6.44     0  02:16        0.67
  WS02004410           JUNCTION     0.46     0.68     6.40     0  02:17        0.68
  WS02004411           JUNCTION     0.48     0.69     6.37     0  02:17        0.69
  WS02004412           JUNCTION     0.50     0.70     6.34     0  02:17        0.70
  WS02004413           JUNCTION     0.66     0.86     6.33     0  02:17        0.86
  WS02006109           JUNCTION     0.70     1.15     7.77     0  02:00        1.06
  WS02006110           JUNCTION     0.70     1.26     7.84     0  02:38        0.99
  WS02006111           JUNCTION     0.20     0.29     6.99     0  02:54        0.29
  WS02006112           JUNCTION     0.79     1.11     7.00     0  03:16        1.07
  WS02006113           JUNCTION     0.30     0.46     7.35     0  02:01        0.46
  WS02006115           JUNCTION     0.52     0.75     6.89     0  02:15        0.75
  WS02006116           JUNCTION     0.60     0.83     6.87     0  02:15        0.83
  WS02006228           JUNCTION     0.70     1.30     7.95     0  02:38        1.10
  WS02006229           JUNCTION     0.67     1.35     8.05     0  02:38        1.09
  WS02006230           JUNCTION     0.68     1.62     8.36     0  02:38        1.16
  WS02006231           JUNCTION     0.47     1.22     8.35     0  02:38        0.90
  WS02006232           JUNCTION     0.61     1.34     8.38     0  02:38        1.15
  WS02006234           JUNCTION     0.54     1.33     8.49     0  02:20        1.29
  WS02006235           JUNCTION     0.58     1.56     8.72     0  02:20        1.56
  WS02006238           JUNCTION     0.61     1.68     8.82     0  02:20        1.68
  WS02006239           JUNCTION     0.58     1.94     9.15     0  02:20        1.94
  WS02006240           JUNCTION     0.55     2.03     9.32     0  02:20        2.03
  WS02006242           JUNCTION     0.62     1.55     8.82     0  02:20        1.55
  WS02006243           JUNCTION     0.53     1.48     8.90     0  02:20        1.48
  WS02006245           JUNCTION     0.53     1.56     9.04     0  02:20        1.56
  WS02006247           JUNCTION     0.55     1.47     8.97     0  02:20        1.47
  WS02006248           JUNCTION     0.51     1.10     8.69     0  01:55        1.10
  WS02006249           JUNCTION     0.54     1.09     8.69     0  01:46        1.09
  WS02006251           JUNCTION     0.54     1.49     9.16     0  01:59        1.43
  WS02006252           JUNCTION     0.38     1.50     9.74     0  00:00        1.00
  WS02006256           JUNCTION     1.04     2.35     9.28     0  00:00        2.35
  WSF200               JUNCTION     0.19     0.29     5.52     0  02:18        0.29
  YS02001580           JUNCTION     0.13     1.05     9.59     0  01:39        0.82
  YS02001583           JUNCTION     0.17     1.14     9.64     0  01:39        0.82
  YS02001586           JUNCTION     0.25     1.13     9.30     0  01:39        1.13
  YS02001590           JUNCTION     0.36     1.37     9.24     0  01:39        1.37
  YS02001593           JUNCTION     0.29     1.29     9.16     0  01:39        1.28
  YS02001596           JUNCTION     0.39     1.66     9.08     0  01:39        1.65
  YS02001600           JUNCTION     0.46     1.86     8.99     0  02:01        1.86
  YS02001601           JUNCTION     0.65     2.06     8.90     0  01:38        2.06
  YS02001602           JUNCTION     0.55     1.87     8.77     0  01:38        1.87
  YS02001605           JUNCTION     0.52     1.78     8.68     0  01:39        1.78
  YS02001607           JUNCTION     0.50     1.68     8.53     0  01:39        1.65
  YS02001610           JUNCTION     0.55     1.68     8.48     0  01:39        1.68
  YS02001613           JUNCTION     0.51     1.68     8.52     0  01:39        1.67
  YS02001616           JUNCTION     0.44     1.61     8.52     0  01:39        1.61
  YS02001619           JUNCTION     0.42     1.61     8.54     0  01:39        1.61
  YS02001622           JUNCTION     0.41     1.62     8.52     0  01:39        1.58
  YS02001625           JUNCTION     0.67     1.78     8.38     0  01:39        1.78
  YS02001629           JUNCTION     0.53     1.85     8.40     0  01:39        1.85
  YS02001633           JUNCTION     0.61     2.08     8.53     0  01:47        2.08
  YS02001641           JUNCTION     0.59     1.98     8.42     0  01:49        1.98
  YS02001644           JUNCTION     0.59     1.92     8.35     0  01:44        1.92
  YS02001647           JUNCTION     0.38     1.80     8.41     0  01:47        1.80
  YS02001649           JUNCTION     0.43     2.02     8.41     0  01:47        2.02
  YS02001652           JUNCTION     0.33     1.87     8.47     0  01:45        1.84
  YS02001655           JUNCTION     0.26     1.71     8.56     0  01:44        1.64
  YS02001658           JUNCTION     0.19     1.62     8.76     0  01:44        1.42
  YS02001661           JUNCTION     0.19     1.39     8.80     0  01:45        1.25
  YS02001664           JUNCTION     0.07     0.75     8.68     0  01:48        0.74
  YS02001745           JUNCTION     0.10     0.92     8.44     0  01:48        0.91
  YS02001748           JUNCTION     0.18     1.67     8.75     0  01:44        1.33
  YS02001751           JUNCTION     0.23     1.64     8.52     0  01:44        1.50
  YS02001754           JUNCTION     0.30     1.78     8.39     0  01:49        1.78
  YS02001757           JUNCTION     0.46     2.12     8.38     0  01:47        2.12
  YS02001759           JUNCTION     0.40     2.21     8.57     0  01:47        2.21
  YS02001762           JUNCTION     0.39     2.15     8.55     0  01:47        2.15
  YS02001765           JUNCTION     0.37     2.10     8.55     0  01:47        2.10
  YS02001767           JUNCTION     0.37     2.03     8.52     0  01:47        2.03
  YS02001770           JUNCTION     0.37     1.95     8.44     0  01:47        1.95
  YS02001774           JUNCTION     0.44     2.01     8.43     0  01:47        2.00
  YS02001779           JUNCTION     0.28     1.68     8.37     0  01:43        1.68
  YS02001783           JUNCTION     0.27     1.30     7.44     0  01:47        1.24
  YS02001784           JUNCTION     0.28     1.17     7.23     0  01:47        1.16
  YS02001786           JUNCTION     0.23     0.91     6.94     0  01:47        0.87
  YS02001788           JUNCTION     0.17     0.62     6.60     0  01:52        0.62
  YS02001790           JUNCTION     0.20     0.72     6.37     0  01:44        0.72
  YS02001791           JUNCTION     0.12     0.44     5.91     0  01:52        0.43
  YS02001793           JUNCTION     0.06     0.30     5.14     0  02:00        0.30
  YS02001882           JUNCTION     0.35     1.82     8.54     0  01:41        1.79
  YS02001884           JUNCTION     0.44     1.89     8.51     0  01:47        1.89
  YS02001887           JUNCTION     0.52     2.00     8.54     0  01:47        2.00
  YS02001890           JUNCTION     0.55     1.81     8.32     0  01:41        1.81
  YS02001895           JUNCTION     0.32     1.59     8.34     0  01:47        1.59
  YS02001898           JUNCTION     0.32     1.60     8.34     0  01:49        1.60
  YS02001901           JUNCTION     0.44     1.69     8.30     0  01:49        1.69
  YS02001904           JUNCTION     0.42     1.65     8.28     0  01:49        1.65
  YS02001907           JUNCTION     0.74     1.96     8.25     0  01:42        1.96
  YS02001910           JUNCTION     0.54     2.02     8.53     0  01:47        2.02
  YS02001915           JUNCTION     0.35     2.00     8.72     0  01:41        2.00
  YS02001918           JUNCTION     0.21     1.81     8.88     0  01:43        1.64
  YS02001920           JUNCTION     0.28     2.14     9.15     0  01:43        1.72
  YS02001923           JUNCTION     0.16     2.03     9.29     0  01:43        1.49
  YS02001926           JUNCTION     0.19     1.90     9.35     0  01:43        1.33
  YS02001929           JUNCTION     0.11     1.78     9.47     0  01:43        1.11
  YS02006553           JUNCTION     0.75     2.09     8.37     0  01:47        2.09
  YS02006556           JUNCTION     0.72     2.19     8.50     0  01:47        2.19
  YS02006558           JUNCTION     0.76     2.28     8.55     0  01:47        2.28
  YS02006561           JUNCTION     0.17     0.99     7.65     0  01:47        0.91
  YS02163301           JUNCTION     0.56     1.99     8.51     0  01:47        1.99
  YS02163601           JUNCTION     0.65     2.08     8.48     0  01:49        2.08
  YS02164001           JUNCTION     0.58     1.99     8.45     0  01:49        1.99
  CC-1                 OUTFALL      0.00     0.00     0.00     0  00:00        0.00
  CC-2                 OUTFALL      0.00     0.00     0.00     0  00:00        0.00
  JK-1                 OUTFALL      0.00     0.00     0.00     0  00:00        0.00
  JK-2                 OUTFALL      0.00     0.00     0.00     0  00:00        0.00
  WSC                  OUTFALL      0.20     0.30     0.97     0  02:19        0.30
  CC-storage           STORAGE      0.95     1.87     7.37     0  02:31        1.87
  JK-storage           STORAGE      2.99     4.23     5.03     0  01:43        4.20
  
  
  *******************
  Node Inflow Summary
  *******************
  
  -------------------------------------------------------------------------------------------------
                                  Maximum  Maximum                  Lateral       Total        Flow
                                  Lateral    Total  Time of Max      Inflow      Inflow     Balance
                                   Inflow   Inflow   Occurrence      Volume      Volume       Error
  Node                 Type           LPS      LPS  days hr:min    10^6 ltr    10^6 ltr     Percent
  -------------------------------------------------------------------------------------------------
  WS02003060           JUNCTION     16.53   552.81     0  02:18       0.476        6.63       0.030
  WS02003066           JUNCTION      0.00   536.27     0  02:17           0        6.15       0.021
  WS02003067           JUNCTION      0.00   536.27     0  02:17           0        6.16       0.065
  WS02003069           JUNCTION      0.32   553.10     0  02:18     0.00922        6.63       0.052
  WS02003072           JUNCTION      0.00   553.01     0  02:19           0        6.63       0.095
  WS02003073           JUNCTION      1.82   554.75     0  02:19      0.0524        6.68       0.076
  WS02004401           JUNCTION      0.00   538.48     0  02:32           0        6.25       0.157
  WS02004402           JUNCTION      0.00   537.15     0  02:15           0        6.24       0.161
  WS02004403           JUNCTION      0.00   536.95     0  02:15           0        6.23       0.157
  WS02004404           JUNCTION      0.16   537.08     0  02:15     0.00467        6.23       0.132
  WS02004405           JUNCTION      0.04   537.13     0  02:16      0.0011        6.22       0.197
  WS02004406           JUNCTION      0.00   537.15     0  02:16           0        6.21       0.327
  WS02004407           JUNCTION      0.00   537.00     0  02:16           0        6.19       0.015
  WS02004409           JUNCTION      0.00   536.87     0  02:16           0        6.19       0.036
  WS02004410           JUNCTION      0.00   536.71     0  02:16           0        6.18       0.063
  WS02004411           JUNCTION      0.00   536.55     0  02:17           0        6.18       0.083
  WS02004412           JUNCTION      0.00   536.43     0  02:17           0        6.18       0.113
  WS02004413           JUNCTION      0.00   536.36     0  02:17           0        6.17       0.203
  WS02006109           JUNCTION      1.23   560.05     0  02:00      0.0354         6.3       0.155
  WS02006110           JUNCTION      0.00   560.59     0  02:00           0        6.29       0.099
  WS02006111           JUNCTION      0.00   561.36     0  02:02           0        6.28       0.006
  WS02006112           JUNCTION      0.00   543.81     0  02:54           0        6.28       0.284
  WS02006113           JUNCTION      0.00   567.29     0  02:38           0        6.28       0.030
  WS02006115           JUNCTION      0.00   557.52     0  02:40           0        6.26       0.098
  WS02006116           JUNCTION      0.00   539.80     0  02:44           0        6.26       0.082
  WS02006228           JUNCTION      0.00   558.27     0  02:00           0        6.27       0.055
  WS02006229           JUNCTION      0.00   558.23     0  02:00           0        6.27       0.074
  WS02006230           JUNCTION     10.28   614.09     0  02:20       0.296        6.27       0.042
  WS02006231           JUNCTION      0.00   588.35     0  02:20           0        5.98       0.014
  WS02006232           JUNCTION      0.00   584.60     0  02:20           0        5.99       0.116
  WS02006234           JUNCTION      0.00   574.70     0  02:20           0        5.98      -0.121
  WS02006235           JUNCTION      0.00   563.77     0  02:31           0        6.05       0.110
  WS02006238           JUNCTION      0.00   425.44     0  02:40           0        5.12      -0.137
  WS02006239           JUNCTION      0.00   424.22     0  02:40           0        5.08      -0.169
  WS02006240           JUNCTION      0.00   422.38     0  02:40           0        5.05      -0.034
  WS02006242           JUNCTION      0.00   422.21     0  02:40           0        5.02      -0.018
  WS02006243           JUNCTION      0.00   421.54     0  02:40           0        4.99      -0.184
  WS02006245           JUNCTION      0.00   420.84     0  02:40           0        4.99       0.151
  WS02006247           JUNCTION      0.00   420.34     0  02:35           0        4.99      -0.004
  WS02006248           JUNCTION      0.00   421.09     0  02:35           0        4.99       0.035
  WS02006249           JUNCTION      0.00   459.02     0  00:00           0        5.24       0.122
  WS02006251           JUNCTION      0.08   409.10     0  02:31     0.00222        5.24       0.023
  WS02006252           JUNCTION      0.00   400.00     0  00:00           0        5.23      -0.085
  WS02006256           JUNCTION      0.00   300.00     0  00:00           0        1.41      -0.654
  WSF200               JUNCTION      0.00   536.27     0  02:18           0        6.15       0.005
  YS02001580           JUNCTION      0.00   113.68     0  01:39           0     0.00427      -1.751
  YS02001583           JUNCTION      0.00   151.57     0  01:39           0      0.0155      -4.071
  YS02001586           JUNCTION    983.33   983.36     0  01:53        2.54        2.56       0.050
  YS02001590           JUNCTION      0.00   319.44     0  01:47           0        1.72      -0.025
  YS02001593           JUNCTION      0.00   318.50     0  01:47           0        1.72      -0.001
  YS02001596           JUNCTION      0.00   318.08     0  02:23           0        1.72      -0.018
  YS02001600           JUNCTION      0.00   318.17     0  02:19           0        1.72       0.007
  YS02001601           JUNCTION   1726.27  2044.13     0  01:51        3.44        5.16       0.010
  YS02001602           JUNCTION      0.00   518.55     0  01:38           0        2.75       0.016
  YS02001605           JUNCTION      0.00   518.75     0  01:38           0        2.56       0.019
  YS02001607           JUNCTION      0.00   518.93     0  01:38           0        2.56       0.075
  YS02001610           JUNCTION      0.00   952.11     0  01:55           0        3.15       0.068
  YS02001613           JUNCTION      0.00   616.07     0  01:55           0         2.4       0.062
  YS02001616           JUNCTION      0.00   616.06     0  01:55           0         2.4       0.019
  YS02001619           JUNCTION   1741.03  1741.03     0  01:52        4.09        5.89      -0.002
  YS02001622           JUNCTION      0.00  1053.37     0  01:51           0        5.27      -0.002
  YS02001625           JUNCTION      0.00  1503.44     0  01:55           0         5.7       0.169
  YS02001629           JUNCTION      0.00   919.15     0  01:39           0        4.01      -0.001
  YS02001633           JUNCTION   1297.99  1364.92     0  01:42        2.53        5.99       0.053
  YS02001641           JUNCTION      0.00  1363.32     0  01:42           0        5.46       0.047
  YS02001644           JUNCTION   1158.03  1805.13     0  01:51        2.19        7.64       0.039
  YS02001647           JUNCTION      0.00  1765.66     0  01:42           0        6.47       0.005
  YS02001649           JUNCTION      0.00  1971.65     0  01:41           0         8.5      -0.001
  YS02001652           JUNCTION      0.00  1125.77     0  01:50           0        2.03      -0.066
  YS02001655           JUNCTION      0.15  1124.79     0  01:50     0.00443        2.03       0.005
  YS02001658           JUNCTION      0.00  1125.39     0  01:50           0        2.02      -0.010
  YS02001661           JUNCTION      0.00  1124.75     0  01:50           0        2.02      -0.010
  YS02001664           JUNCTION   1122.58  1122.58     0  01:50        2.02        2.02      -0.005
  YS02001745           JUNCTION    714.13   714.13     0  01:50        1.21        1.21       0.129
  YS02001748           JUNCTION      0.04   714.80     0  01:50      0.0013        1.21      -0.237
  YS02001751           JUNCTION      0.01   715.68     0  01:50    0.000317        1.22       0.050
  YS02001754           JUNCTION      0.26   716.14     0  01:50     0.00749        1.23      -0.122
  YS02001757           JUNCTION      0.00  3330.23     0  01:48           0        13.4       0.020
  YS02001759           JUNCTION    991.96  1410.15     0  01:49        1.67        3.68      -0.012
  YS02001762           JUNCTION      0.00   720.68     0  01:45           0           2      -0.021
  YS02001765           JUNCTION      0.00   722.00     0  01:45           0           2      -0.011
  YS02001767           JUNCTION      0.54   723.04     0  01:45      0.0154           2       0.004
  YS02001770           JUNCTION   1399.85  1399.85     0  01:51        2.54        2.58      -0.012
  YS02001774           JUNCTION      0.00   850.51     0  01:52           0       0.595       0.160
  YS02001779           JUNCTION      0.01   850.55     0  01:52    0.000144       0.548      -0.066
  YS02001783           JUNCTION      0.00  1173.48     0  01:49           0        5.27       0.002
  YS02001784           JUNCTION      1.06  1174.72     0  01:47      0.0305         5.3       0.007
  YS02001786           JUNCTION      0.06  1176.31     0  01:47     0.00162         5.3       0.014
  YS02001788           JUNCTION      0.07  1178.33     0  01:47     0.00204        5.31       0.006
  YS02001790           JUNCTION      0.15  1177.33     0  01:49     0.00446        5.31       0.032
  YS02001791           JUNCTION      0.00  1290.30     0  01:59           0        5.31      -0.036
  YS02001793           JUNCTION      0.00  1251.59     0  01:45           0        5.31       0.004
  YS02001882           JUNCTION      0.00    46.62     0  01:40           0      0.0136       3.361
  YS02001884           JUNCTION      0.00    77.79     0  01:40           0      0.0505       4.805
  YS02001887           JUNCTION   1060.63  1061.35     0  01:49        1.73        1.77       0.230
  YS02001890           JUNCTION      0.00  1063.79     0  01:49           0        1.73       0.280
  YS02001895           JUNCTION      0.00   517.88     0  01:57           0        1.47       0.115
  YS02001898           JUNCTION      0.00   517.55     0  01:56           0        1.47       0.000
  YS02001901           JUNCTION      0.00   517.41     0  01:56           0        1.47       0.212
  YS02001904           JUNCTION      0.00   517.82     0  01:57           0        1.48       0.152
  YS02001907           JUNCTION      0.00  2648.87     0  01:51           0        5.32       0.331
  YS02001910           JUNCTION      0.00  1868.82     0  01:51           0        3.77       0.184
  YS02001915           JUNCTION   1252.58  1868.25     0  01:51        2.42        3.81       0.032
  YS02001918           JUNCTION      0.00   617.52     0  01:51           0        1.42       0.004
  YS02001920           JUNCTION      2.87   617.22     0  01:51      0.0827         1.4       0.071
  YS02001923           JUNCTION      0.04   613.50     0  01:51     0.00109         1.3      -0.094
  YS02001926           JUNCTION      0.05   614.03     0  01:51      0.0015        1.28      -0.083
  YS02001929           JUNCTION    612.63   612.63     0  01:52        1.27        1.27      -0.065
  YS02006553           JUNCTION      0.00   795.66     0  02:18           0        2.93       0.391
  YS02006556           JUNCTION      0.00   796.09     0  02:18           0        2.94       0.253
  YS02006558           JUNCTION   1435.84  1435.84     0  01:50        2.54        5.38       0.060
  YS02006561           JUNCTION      0.00  1171.75     0  01:49           0        5.27      -0.003
  YS02163301           JUNCTION      0.00   918.72     0  01:42           0        4.01       0.032
  YS02163601           JUNCTION      0.11  1364.66     0  01:42     0.00317        5.45       0.085
  YS02164001           JUNCTION      0.00  1364.22     0  01:42           0        5.45       0.034
  CC-1                 OUTFALL       0.00   683.00     0  00:00           0        4.47       0.000
  CC-2                 OUTFALL       0.00   683.00     0  00:00           0         4.5       0.000
  JK-1                 OUTFALL       0.00  1000.00     0  00:00           0        1.99       0.000
  JK-2                 OUTFALL       0.00  1000.00     0  00:00           0         1.9       0.000
  WSC                  OUTFALL       0.00   554.65     0  02:19           0        6.67       0.000
  CC-storage           STORAGE       0.00  3329.67     0  01:48           0        15.6      -0.183
  JK-storage           STORAGE       0.00  1263.69     0  01:45           0        5.46       0.036
  
  
  **********************
  Node Surcharge Summary
  **********************
  
  Surcharging occurs when water rises above the top of the highest conduit.
  ---------------------------------------------------------------------
                                               Max. Height   Min. Depth
                                   Hours       Above Crown    Below Rim
  Node                 Type      Surcharged         Meters       Meters
  ---------------------------------------------------------------------
  WS02006109           JUNCTION        2.42          0.332        1.488
  WS02006110           JUNCTION        0.80          0.345        1.505
  WS02006112           JUNCTION        0.82          0.114        1.566
  WS02006228           JUNCTION        2.42          0.465        1.735
  WS02006229           JUNCTION        2.44          0.551        1.899
  WS02006230           JUNCTION        0.81          0.536        1.034
  WS02006231           JUNCTION        0.94          0.513        1.017
  WS02006232           JUNCTION        2.54          0.644        0.836
  WS02006234           JUNCTION        1.27          0.610        0.630
  WS02006235           JUNCTION        2.41          0.850        0.440
  WS02006238           JUNCTION        2.47          0.961        0.469
  WS02006239           JUNCTION        2.43          1.200        0.090
  WS02006240           JUNCTION        2.45          1.316        0.074
  WS02006242           JUNCTION        2.61          0.820        0.000
  WS02006243           JUNCTION        2.46          0.770        0.000
  WS02006245           JUNCTION        2.45          0.850        0.000
  WS02006247           JUNCTION        2.48          0.760        0.000
  WS02006248           JUNCTION        2.44          0.380        0.000
  WS02006249           JUNCTION        2.46          0.390        0.000
  WS02006251           JUNCTION        1.01          0.464        0.716
  WS02006252           JUNCTION        3.17          1.100        0.000
  WS02006256           JUNCTION        5.90          2.050        0.000
  YS02001580           JUNCTION        0.96          0.450        0.000
  YS02001583           JUNCTION        0.97          0.500        0.000
  YS02001586           JUNCTION        1.17          0.510        0.000
  YS02001590           JUNCTION        1.27          0.724        0.026
  YS02001593           JUNCTION        1.28          0.674        0.166
  YS02001596           JUNCTION        1.43          0.927        0.143
  YS02001600           JUNCTION        1.56          1.183        0.007
  YS02001601           JUNCTION        1.80          1.440        0.000
  YS02001602           JUNCTION        1.72          1.270        0.000
  YS02001605           JUNCTION        1.69          1.180        0.000
  YS02001607           JUNCTION        1.30          0.680        0.000
  YS02001610           JUNCTION        1.33          0.680        0.000
  YS02001613           JUNCTION        1.29          0.682        0.018
  YS02001616           JUNCTION        1.24          0.610        0.000
  YS02001619           JUNCTION        1.22          0.610        0.000
  YS02001622           JUNCTION        1.22          0.620        0.000
  YS02001625           JUNCTION        1.43          0.780        0.000
  YS02001629           JUNCTION        1.16          0.470        0.000
  YS02001633           JUNCTION        1.46          1.060        0.000
  YS02001641           JUNCTION        1.43          0.985        0.115
  YS02001644           JUNCTION        1.40          0.920        0.000
  YS02001647           JUNCTION        1.16          0.803        0.097
  YS02001649           JUNCTION        1.33          1.019        0.031
  YS02001652           JUNCTION        1.09          0.841        0.289
  YS02001655           JUNCTION        0.85          0.707        0.493
  YS02001658           JUNCTION        0.45          0.618        0.682
  YS02001661           JUNCTION        0.14          0.324        1.066
  YS02001748           JUNCTION        0.34          0.592        0.598
  YS02001751           JUNCTION        0.65          0.640        0.560
  YS02001754           JUNCTION        0.99          0.732        0.418
  YS02001757           JUNCTION        1.39          1.119        0.091
  YS02001759           JUNCTION        1.32          1.210        0.000
  YS02001762           JUNCTION        1.28          1.150        0.000
  YS02001765           JUNCTION        1.23          1.100        0.000
  YS02001767           JUNCTION        1.18          1.030        0.000
  YS02001770           JUNCTION        1.14          0.920        0.000
  YS02001774           JUNCTION        1.26          1.007        0.043
  YS02001779           JUNCTION        0.98          0.680        0.000
  YS02001783           JUNCTION        0.80          0.503        1.097
  YS02001784           JUNCTION        0.77          0.366        1.124
  YS02001786           JUNCTION        0.64          0.107        1.323
  YS02001882           JUNCTION        0.73          0.820        0.010
  YS02001884           JUNCTION        0.74          0.833        0.037
  YS02001887           JUNCTION        0.79          0.950        0.000
  YS02001890           JUNCTION        0.81          0.760        0.000
  YS02001895           JUNCTION        0.72          0.593        0.157
  YS02001898           JUNCTION        0.71          0.573        0.167
  YS02001901           JUNCTION        0.77          0.689        0.181
  YS02001904           JUNCTION        0.76          0.649        0.201
  YS02001907           JUNCTION        1.08          0.950        0.000
  YS02001910           JUNCTION        0.84          1.024        0.076
  YS02001915           JUNCTION        0.73          1.000        0.000
  YS02001918           JUNCTION        0.62          0.810        0.000
  YS02001920           JUNCTION        0.64          1.140        0.000
  YS02001923           JUNCTION        0.23          0.820        0.000
  YS02001926           JUNCTION        0.26          0.900        0.000
  YS02001929           JUNCTION        0.10          0.780        0.000
  YS02006553           JUNCTION        1.13          1.091        0.099
  YS02006556           JUNCTION        0.96          1.154        0.196
  YS02006558           JUNCTION        0.95          1.182        0.218
  YS02006561           JUNCTION        0.58          0.188        0.962
  YS02163301           JUNCTION        1.45          0.993        0.037
  YS02163601           JUNCTION        1.49          1.080        0.000
  YS02164001           JUNCTION        1.43          0.992        0.108
  
  
  *********************
  Node Flooding Summary
  *********************
  
  Flooding refers to all water that overflows a node, whether it ponds or not.
  --------------------------------------------------------------------------
                                                             Total   Maximum
                                 Maximum   Time of Max       Flood    Ponded
                        Hours       Rate    Occurrence      Volume     Depth
  Node                 Flooded       LPS   days hr:min    10^6 ltr    Meters
  --------------------------------------------------------------------------
  WS02006242              0.01      4.85      0  02:20       0.000     0.000
  WS02006243              0.01      3.81      0  02:20       0.000     0.000
  WS02006245              0.01      1.53      0  02:20       0.000     0.000
  WS02006247              0.01      1.54      0  02:20       0.000     0.000
  WS02006248              0.01     17.81      0  02:20       0.000     0.000
  WS02006249              0.98     99.29      0  01:46       0.237     0.000
  WS02006252              0.01    245.63      0  00:00       0.000     0.000
  WS02006256              1.30    293.19      0  00:00       0.439     0.000
  YS02001580              0.01    103.06      0  01:39       0.000     0.000
  YS02001583              0.01     17.28      0  01:39       0.000     0.000
  YS02001586              0.77    665.78      0  01:53       0.820     0.000
  YS02001601              1.07   1645.99      0  01:51       2.406     0.000
  YS02001602              0.96     62.03      0  02:10       0.196     0.000
  YS02001605              0.01      2.89      0  01:39       0.000     0.000
  YS02001607              0.01     10.55      0  01:39       0.000     0.000
  YS02001610              0.84    952.10      0  01:55       1.350     0.000
  YS02001616              0.02     50.76      0  01:39       0.000     0.000
  YS02001619              0.11     78.71      0  01:52       0.017     0.000
  YS02001622              0.01     97.08      0  01:39       0.000     0.000
  YS02001625              0.81   1503.43      0  01:55       2.221     0.000
  YS02001629              0.23    240.27      0  01:50       0.119     0.000
  YS02001633              0.01      1.79      0  01:49       0.000     0.000
  YS02001644              0.36   1798.75      0  01:51       1.155     0.000
  YS02001759              0.01      0.60      0  01:47       0.000     0.000
  YS02001762              0.01      0.81      0  01:47       0.000     0.000
  YS02001765              0.01      0.07      0  01:47       0.000     0.000
  YS02001767              0.01      0.69      0  01:47       0.000     0.000
  YS02001770              0.08    148.01      0  01:50       0.025     0.000
  YS02001779              0.31    850.53      0  01:52       0.530     0.000
  YS02001887              0.01      0.58      0  01:47       0.000     0.000
  YS02001890              0.28    552.19      0  01:49       0.254     0.000
  YS02001907              0.55   2648.25      0  01:51       2.459     0.000
  YS02001915              0.01     85.28      0  01:41       0.000     0.000
  YS02001918              0.01    119.15      0  01:43       0.001     0.000
  YS02001920              0.01     19.57      0  01:43       0.000     0.000
  YS02001923              0.01    109.24      0  01:43       0.000     0.000
  YS02001926              0.01     60.86      0  01:43       0.000     0.000
  YS02001929              0.01    217.07      0  01:43       0.001     0.000
  YS02163601              0.01      0.23      0  01:49       0.000     0.000
  
  
  **********************
  Storage Volume Summary
  **********************
  
  ------------------------------------------------------------------------------------------------
                         Average    Avg   Evap  Exfil     Maximum    Max    Time of Max    Maximum
                          Volume   Pcnt   Pcnt   Pcnt      Volume   Pcnt     Occurrence    Outflow
  Storage Unit           1000 m³   Full   Loss   Loss     1000 m³   Full    days hr:min        LPS
  ------------------------------------------------------------------------------------------------
  CC-storage               2.646   41.3    0.0    0.0       5.205   81.2       0  02:31    1783.53
  JK-storage               0.150   51.6    0.0    0.0       0.213   72.9       0  01:43    2300.00
  
  
  ***********************
  Outfall Loading Summary
  ***********************
  
  -----------------------------------------------------------
                         Flow       Avg       Max       Total
                         Freq      Flow      Flow      Volume
  Outfall Node           Pcnt       LPS       LPS    10^6 ltr
  -----------------------------------------------------------
  CC-1                  24.79    683.00    683.00       4.474
  CC-2                  25.26    683.00    683.00       4.501
  JK-1                   9.37   1000.00   1000.00       1.986
  JK-2                   7.30   1000.00   1000.00       1.905
  WSC                   99.96    301.58    554.65       6.671
  -----------------------------------------------------------
  System                33.34   3667.58   3920.12      19.537
  
  
  ********************
  Link Flow Summary
  ********************
  
  -----------------------------------------------------------------------------
                                 Maximum  Time of Max   Maximum    Max/    Max/
                                  |Flow|   Occurrence   |Veloc|    Full    Full
  Link                 Type          LPS  days hr:min     m/sec    Flow   Depth
  -----------------------------------------------------------------------------
  1                    CONDUIT    554.65     0  02:19      2.83    0.19    0.30
  WS02003060WS02003069 CONDUIT    552.78     0  02:18      1.64    0.22    0.34
  WS02003066WSF200     CONDUIT    536.27     0  02:18      2.85    0.09    0.22
  WS02003067WS02003066 CONDUIT    536.27     0  02:17      1.21    0.17    0.42
  WS02003069WS02003072 CONDUIT    553.01     0  02:19      1.37    0.27    0.39
  WS02003072WS02003073 CONDUIT    552.93     0  02:19      1.43    1.19    0.37
  WS02004401WS02004402 CONDUIT    537.15     0  02:15      0.98    0.64    0.86
  WS02004402WS02004403 CONDUIT    536.95     0  02:15      0.97    0.77    0.88
  WS02004403WS02004404 CONDUIT    536.92     0  02:15      0.92    0.39    0.93
  WS02004404WS02004405 CONDUIT    537.09     0  02:16      1.08    5.26    0.96
  WS02004405WS02004406 CONDUIT    537.15     0  02:16      0.99    1.06    0.96
  WS02004406WS02004407 CONDUIT    537.00     0  02:16      1.04    0.24    0.63
  WS02004407WS02004409 CONDUIT    536.87     0  02:16      1.55    0.19    0.48
  WS02004409WS02004410 CONDUIT    536.71     0  02:16      1.03    0.69    0.67
  WS02004410WS02004411 CONDUIT    536.55     0  02:17      0.98    0.73    0.69
  WS02004411WS02004412 CONDUIT    536.43     0  02:17      0.92    0.76    0.69
  WS02004412WS02004413 CONDUIT    536.36     0  02:17      0.82    0.36    0.78
  WS02004413WS02003067 CONDUIT    536.27     0  02:17      1.11    0.23    0.59
  WS02006109WS02006110 CONDUIT    560.59     0  02:00      1.12    1.08    1.00
  WS02006110WS02006113 CONDUIT    567.29     0  02:38      1.37    0.52    0.79
  WS02006111WS02006112 CONDUIT    543.81     0  02:54      1.81    0.26    0.67
  WS02006112WS02006115 CONDUIT    557.52     0  02:40      0.85    0.33    0.87
  WS02006113WS02006111 CONDUIT    561.36     0  02:02      2.47    0.67    0.46
  WS02006115WS02006116 CONDUIT    539.80     0  02:44      1.05    0.69    0.76
  WS02006116WS02004401 CONDUIT    538.48     0  02:32      0.98    0.74    0.84
  WS02006228WS02006109 CONDUIT    558.82     0  02:00      1.11    2.44    1.00
  WS02006229WS02006228 CONDUIT    558.27     0  02:00      1.14    1.85    1.00
  WS02006230WS02006229 CONDUIT    558.23     0  02:00      1.45   12.42    1.00
  WS02006231WS02006230 CONDUIT    603.81     0  02:20      1.61    9.16    1.00
  WS02006232WS02006231 CONDUIT    588.35     0  02:20      1.53    1.23    1.00
  WS02006234WS02006232 CONDUIT    584.60     0  02:20      1.52    1.18    1.00
  WS02006235WS02006234 CONDUIT    574.70     0  02:20      1.49    6.06    1.00
  WS02006238WS02006235 CONDUIT    425.28     0  02:35      1.45    0.95    1.00
  WS02006239WS02006238 CONDUIT    425.44     0  02:40      1.11    1.36    1.00
  WS02006240WS02006239 CONDUIT    424.22     0  02:40      1.24    1.33    1.00
  WS02006242WS02006240 CONDUIT    422.38     0  02:40      1.13    1.68    1.00
  WS02006243WS02006242 CONDUIT    422.21     0  02:40      1.40    0.90    1.00
  WS02006245WS02006243 CONDUIT    421.54     0  02:40      1.45    1.25    1.00
  WS02006247WS02006245 CONDUIT    420.84     0  02:40      1.43    3.34    1.00
  WS02006248WS02006247 CONDUIT    420.34     0  02:35      1.44    0.91    1.00
  WS02006249WS02006248 CONDUIT    421.09     0  02:35      1.36    2.31    1.00
  WS02006251WS02006249 CONDUIT    459.02     0  00:00      1.99    1.32    1.00
  WS02006252WS02006251 CONDUIT    409.02     0  02:31     35.71    1.50    1.00
  WS02006256WS02006235 CONDUIT    288.91     0  00:00      4.23    3.06    1.00
  WSF200WS02003060     CONDUIT    536.28     0  02:18      2.06    0.12    0.28
  YS02001580YS02001583 CONDUIT    113.68     0  01:39      0.63    0.44    1.00
  YS02001583YS02001586 CONDUIT    150.45     0  01:39      0.65    0.23    1.00
  YS02001586YS02001590 CONDUIT    319.44     0  01:47      1.25    0.56    1.00
  YS02001590YS02001593 CONDUIT    318.50     0  01:47      1.13    2.00    1.00
  YS02001593YS02001596 CONDUIT    318.08     0  02:23      1.70    0.50    1.00
  YS02001596YS02001600 CONDUIT    318.17     0  02:19      1.25    0.62    1.00
  YS02001600YS02001601 CONDUIT    318.35     0  01:47      1.13    0.55    1.00
  YS02001601YS02001602 CONDUIT    518.55     0  01:38      1.83    1.87    1.00
  YS02001602YS02001605 CONDUIT    518.75     0  01:38      1.83   10.98    1.00
  YS02001605YS02001607 CONDUIT    518.93     0  01:38      1.84    2.85    1.00
  YS02001607YS02001610 CONDUIT    522.06     0  01:38      0.66    0.50    1.00
  YS02001610YS02001613 CONDUIT    616.07     0  01:55      0.78    0.71    1.00
  YS02001613YS02001616 CONDUIT    616.07     0  01:55      0.78    0.53    1.00
  YS02001616YS02001619 CONDUIT    616.06     0  01:55      0.78    1.07    1.00
  YS02001619YS02001622 CONDUIT   1053.37     0  01:51      1.34    1.55    1.00
  YS02001622YS02001625 CONDUIT   1053.41     0  01:51      1.34    0.56    1.00
  YS02001625YS02001629 CONDUIT    919.15     0  01:39      1.18    0.44    1.00
  YS02001629YS02163301 CONDUIT    918.72     0  01:42      1.17    1.13    1.00
  YS02001633YS02163601 CONDUIT   1364.55     0  01:42      1.74    1.43    1.00
  YS02001641YS02001644 CONDUIT   1362.78     0  01:42      1.74    4.41    1.00
  YS02001644YS02001647 CONDUIT   1765.66     0  01:42      2.25    1.04    1.00
  YS02001647YS02001649 CONDUIT   1779.43     0  01:42      2.31    0.94    1.00
  YS02001649YS02001757 CONDUIT   1951.43     0  01:42      2.49    1.18    1.00
  YS02001652YS02001649 CONDUIT   1125.64     0  01:50      1.43    0.56    1.00
  YS02001655YS02001652 CONDUIT   1125.77     0  01:50      1.43    0.55    1.00
  YS02001658YS02001655 CONDUIT   1124.63     0  01:50      1.89    0.48    1.00
  YS02001661YS02001658 CONDUIT   1125.39     0  01:50      2.29    0.44    1.00
  YS02001664YS02001661 CONDUIT   1124.75     0  01:50      2.27    0.35    0.88
  YS02001745YS02001748 CONDUIT    714.76     0  01:50      2.15    0.28    0.96
  YS02001748YS02001751 CONDUIT    715.67     0  01:50      1.68    0.36    1.00
  YS02001751YS02001754 CONDUIT    715.88     0  01:50      1.44    0.35    1.00
  YS02001754YS02001757 CONDUIT    715.67     0  01:50      0.91    0.29    1.00
  YS02001757CaochengTiaoxuchi CONDUIT   3329.67     0  01:48      4.24    1.44    1.00
  YS02001759YS02001757 CONDUIT   1413.48     0  01:49      1.80    1.00    1.00
  YS02001762YS02001759 CONDUIT    721.50     0  01:45      0.92    0.83    1.00
  YS02001765YS02001762 CONDUIT    720.68     0  01:45      0.92    0.68    1.00
  YS02001767YS02001765 CONDUIT    722.00     0  01:45      0.92    0.91    1.00
  YS02001770YS02001767 CONDUIT    722.51     0  01:45      0.92    2.86    1.00
  YS02001774YS02001770 CONDUIT    850.51     0  01:52      1.08    0.54    1.00
  YS02001779YS02001774 CONDUIT    850.54     0  01:52      1.08    0.43    1.00
  YS02001783YS02001784 CONDUIT   1173.66     0  01:47      2.33    1.62    1.00
  YS02001784YS02001785 CONDUIT   1176.26     0  01:47      2.34    2.74    1.00
  YS02001786YS02001788 CONDUIT   1178.26     0  01:47      2.50    2.27    0.89
  YS02001788YS02001790 CONDUIT   1177.18     0  01:49      2.72    0.87    0.84
  YS02001790YS02001791 CONDUIT   1290.30     0  01:59      3.44    1.40    0.70
  YS02001791YS02001793 CONDUIT   1251.59     0  01:45      6.80    0.54    0.45
  YS02001793JiankangQianchi CONDUIT   1263.69     0  01:45      2.52    0.10    0.65
  YS02001882YS02001884 CONDUIT     46.62     0  01:40      0.18    0.05    1.00
  YS02001884YS02001887 CONDUIT     77.79     0  01:40      0.13    0.10    1.00
  YS02001887YS02001890 CONDUIT   1063.79     0  01:49      1.35    1.82    1.00
  YS02001890YS02001895 CONDUIT    517.88     0  01:57      0.66    0.24    1.00
  YS02001895YS02001898 CONDUIT    517.55     0  01:56      0.66    0.90    1.00
  YS02001898YS02001901 CONDUIT    517.41     0  01:56      0.66    0.33    1.00
  YS02001901YS02001904 CONDUIT    517.82     0  01:57      0.66    0.80    1.00
  YS02001904YS02001907 CONDUIT    520.36     0  01:49      0.66    0.18    1.00
  YS02001907YS02006553 CONDUIT    795.66     0  02:18      0.88    0.94    1.00
  YS02001910YS02001907 CONDUIT   1868.63     0  01:51      2.38    1.05    1.00
  YS02001915YS02001910 CONDUIT   1868.82     0  01:51      2.38    0.93    1.00
  YS02001918YS02001915 CONDUIT    617.37     0  01:52      0.79    0.34    1.00
  YS02001920YS02001918 CONDUIT    617.52     0  01:51      0.79    0.60    1.00
  YS02001923YS02001920 CONDUIT    614.35     0  01:51      0.78    0.28    1.00
  YS02001926YS02001923 CONDUIT    613.46     0  01:51      0.95    0.88    1.00
  YS02001929YS02001926 CONDUIT    613.98     0  01:51      1.11    0.29    1.00
  YS02006553YS02006556 CONDUIT    796.09     0  02:18      1.01    0.68    1.00
  YS02006556YS02006558 CONDUIT    797.37     0  02:18      1.02    0.63    1.00
  YS02006558YS02006561 CONDUIT   1171.75     0  01:49      4.14    2.59    1.00
  YS02006561YS02001783 CONDUIT   1173.48     0  01:49      2.33    0.61    1.00
  YS02163301YS02001633 CONDUIT    918.81     0  01:42      1.17    0.86    1.00
  YS02163601YS02164001 CONDUIT   1364.22     0  01:42      1.74    1.21    1.00
  YS02164001YS02001641 CONDUIT   1363.32     0  01:42      1.74    1.86    1.00
  CC-R1                PUMP       683.00     0  00:00              1.00
  CC-R2                PUMP       683.00     0  00:00              1.00
  CC-S1                PUMP       200.00     0  00:00              1.00
  CC-S2                PUMP       200.00     0  00:00              1.00
  JK-R1                PUMP      1000.00     0  00:00              1.00
  JK-R2                PUMP      1000.00     0  00:00              1.00
  JK-S                 PUMP       300.00     0  00:00              1.00
  
  
  ***************************
  Flow Classification Summary
  ***************************
  
  -------------------------------------------------------------------------------------
                      Adjusted    ---------- Fraction of Time in Flow Class ---------- 
                       /Actual         Up    Down  Sub   Sup   Up    Down  Norm  Inlet 
  Conduit               Length    Dry  Dry   Dry   Crit  Crit  Crit  Crit  Ltd   Ctrl  
  -------------------------------------------------------------------------------------
  1                       1.00   0.00  0.00  0.00  0.00  1.00  0.00  0.00  0.46  0.00
  WS02003060WS02003069    1.00   0.00  0.00  0.00  0.98  0.02  0.00  0.00  0.56  0.00
  WS02003066WSF200        1.00   0.13  0.00  0.00  0.00  0.87  0.00  0.00  0.76  0.00
  WS02003067WS02003066    1.00   0.10  0.02  0.00  0.88  0.00  0.00  0.00  0.00  0.00
  WS02003069WS02003072    1.00   0.00  0.00  0.00  0.99  0.01  0.00  0.00  0.66  0.00
  WS02003072WS02003073    1.00   0.00  0.00  0.00  0.00  0.00  0.00  1.00  0.00  0.00
  WS02004401WS02004402    1.00   0.02  0.00  0.00  0.98  0.00  0.00  0.00  0.00  0.00
  WS02004402WS02004403    1.00   0.02  0.00  0.00  0.97  0.00  0.00  0.00  0.00  0.00
  WS02004403WS02004404    1.00   0.00  0.03  0.00  0.97  0.00  0.00  0.00  0.00  0.00
  WS02004404WS02004405    1.00   0.00  0.00  0.00  1.00  0.00  0.00  0.00  0.00  0.00
  WS02004405WS02004406    1.00   0.00  0.00  0.00  1.00  0.00  0.00  0.00  0.00  0.00
  WS02004406WS02004407    1.00   0.00  0.05  0.00  0.95  0.00  0.00  0.00  0.00  0.00
  WS02004407WS02004409    1.00   0.05  0.00  0.00  0.94  0.01  0.00  0.00  0.94  0.00
  WS02004409WS02004410    1.00   0.05  0.00  0.00  0.95  0.00  0.00  0.00  0.03  0.00
  WS02004410WS02004411    1.00   0.05  0.00  0.00  0.95  0.00  0.00  0.00  0.01  0.00
  WS02004411WS02004412    1.00   0.05  0.00  0.00  0.95  0.00  0.00  0.00  0.00  0.00
  WS02004412WS02004413    1.00   0.05  0.00  0.00  0.94  0.00  0.00  0.00  0.01  0.00
  WS02004413WS02003067    1.00   0.06  0.04  0.00  0.00  0.00  0.90  0.00  0.00  0.00
  WS02006109WS02006110    1.00   0.00  0.01  0.00  0.98  0.00  0.01  0.00  0.00  0.00
  WS02006110WS02006113    1.00   0.01  0.01  0.00  0.98  0.00  0.00  0.00  0.00  0.00
  WS02006111WS02006112    1.00   0.02  0.00  0.00  0.98  0.00  0.00  0.00  0.98  0.00
  WS02006112WS02006115    1.00   0.02  0.00  0.00  0.97  0.00  0.00  0.00  0.00  0.00
  WS02006113WS02006111    1.00   0.02  0.00  0.00  0.00  0.98  0.00  0.00  0.17  0.00
  WS02006115WS02006116    1.00   0.02  0.00  0.00  0.97  0.00  0.00  0.01  0.00  0.00
  WS02006116WS02004401    1.00   0.02  0.00  0.00  0.98  0.00  0.00  0.00  0.00  0.00
  WS02006228WS02006109    1.00   0.00  0.00  0.00  1.00  0.00  0.00  0.00  0.00  0.00
  WS02006229WS02006228    1.00   0.00  0.00  0.00  0.99  0.00  0.00  0.01  0.00  0.00
  WS02006230WS02006229    1.00   0.00  0.00  0.00  0.99  0.00  0.00  0.01  0.02  0.00
  WS02006231WS02006230    1.00   0.00  0.00  0.00  0.37  0.00  0.63  0.00  0.00  0.00
  WS02006232WS02006231    1.00   0.00  0.00  0.00  0.99  0.00  0.01  0.00  0.00  0.00
  WS02006234WS02006232    1.00   0.00  0.00  0.00  1.00  0.00  0.00  0.00  0.15  0.00
  WS02006235WS02006234    1.00   0.00  0.00  0.00  0.79  0.00  0.21  0.00  0.00  0.00
  WS02006238WS02006235    1.00   0.00  0.00  0.00  1.00  0.00  0.00  0.00  0.00  0.00
  WS02006239WS02006238    1.00   0.00  0.00  0.00  1.00  0.00  0.00  0.00  0.26  0.00
  WS02006240WS02006239    1.00   0.00  0.00  0.00  0.67  0.00  0.00  0.32  0.02  0.00
  WS02006242WS02006240    1.00   0.00  0.00  0.00  0.99  0.00  0.01  0.00  0.00  0.00
  WS02006243WS02006242    1.00   0.00  0.00  0.00  0.99  0.00  0.00  0.01  0.43  0.00
  WS02006245WS02006243    1.00   0.00  0.00  0.00  0.74  0.00  0.00  0.26  0.01  0.00
  WS02006247WS02006245    1.00   0.00  0.00  0.00  0.99  0.00  0.00  0.01  0.00  0.00
  WS02006248WS02006247    1.00   0.00  0.00  0.00  0.99  0.00  0.00  0.01  0.21  0.00
  WS02006249WS02006248    1.00   0.00  0.00  0.00  0.55  0.00  0.45  0.00  0.00  0.00
  WS02006251WS02006249    1.00   0.00  0.00  0.00  1.00  0.00  0.00  0.00  0.46  0.00
  WS02006252WS02006251    1.00   0.01  0.47  0.00  0.13  0.00  0.40  0.00  0.00  0.00
  WS02006256WS02006235    1.00   0.00  0.00  0.00  0.99  0.01  0.00  0.00  0.00  0.00
  WSF200WS02003060        1.00   0.00  0.13  0.00  0.24  0.63  0.00  0.00  0.38  0.00
  YS02001580YS02001583    1.00   0.20  0.55  0.00  0.25  0.00  0.00  0.00  0.64  0.00
  YS02001583YS02001586    1.00   0.40  0.29  0.00  0.30  0.00  0.00  0.00  0.64  0.00
  YS02001586YS02001590    1.00   0.13  0.00  0.00  0.46  0.04  0.00  0.38  0.33  0.00
  YS02001590YS02001593    1.00   0.13  0.01  0.00  0.18  0.00  0.69  0.00  0.00  0.00
  YS02001593YS02001596    1.00   0.13  0.00  0.00  0.19  0.01  0.00  0.67  0.02  0.00
  YS02001596YS02001600    1.00   0.13  0.00  0.00  0.24  0.01  0.00  0.62  0.03  0.00
  YS02001600YS02001601    1.00   0.13  0.01  0.00  0.87  0.00  0.00  0.00  0.58  0.00
  YS02001601YS02001602    1.00   0.13  0.01  0.00  0.87  0.00  0.00  0.00  0.00  0.00
  YS02001602YS02001605    1.00   0.13  0.00  0.00  0.87  0.00  0.00  0.00  0.00  0.00
  YS02001605YS02001607    1.00   0.13  0.00  0.00  0.87  0.00  0.00  0.00  0.00  0.00
  YS02001607YS02001610    1.00   0.13  0.00  0.00  0.86  0.00  0.00  0.00  0.01  0.00
  YS02001610YS02001613    1.00   0.13  0.00  0.00  0.87  0.00  0.00  0.00  0.00  0.00
  YS02001613YS02001616    1.00   0.13  0.00  0.00  0.87  0.00  0.00  0.00  0.00  0.00
  YS02001616YS02001619    1.00   0.13  0.00  0.00  0.87  0.00  0.00  0.00  0.00  0.00
  YS02001619YS02001622    1.00   0.13  0.00  0.00  0.87  0.00  0.00  0.00  0.28  0.00
  YS02001622YS02001625    1.00   0.13  0.00  0.00  0.87  0.00  0.00  0.00  0.03  0.00
  YS02001625YS02001629    1.00   0.13  0.04  0.00  0.22  0.00  0.62  0.00  0.00  0.00
  YS02001629YS02163301    1.00   0.14  0.01  0.00  0.85  0.00  0.00  0.00  0.00  0.00
  YS02001633YS02163601    1.00   0.00  0.01  0.00  0.99  0.00  0.00  0.00  0.14  0.00
  YS02001641YS02001644    1.00   0.00  0.01  0.00  0.99  0.00  0.00  0.00  0.00  0.00
  YS02001644YS02001647    1.00   0.00  0.16  0.00  0.84  0.00  0.00  0.00  0.00  0.00
  YS02001647YS02001649    1.00   0.00  0.16  0.00  0.63  0.21  0.00  0.00  0.54  0.00
  YS02001649YS02001757    1.00   0.00  0.00  0.00  0.87  0.13  0.00  0.00  0.36  0.00
  YS02001652YS02001649    1.00   0.00  0.00  0.00  0.98  0.02  0.00  0.00  0.69  0.00
  YS02001655YS02001652    1.00   0.00  0.00  0.00  0.24  0.01  0.00  0.75  0.04  0.00
  YS02001658YS02001655    1.00   0.00  0.14  0.00  0.72  0.14  0.00  0.00  0.62  0.00
  YS02001661YS02001658    1.00   0.14  0.00  0.00  0.56  0.30  0.00  0.00  0.65  0.00
  YS02001664YS02001661    1.00   0.13  0.00  0.00  0.79  0.09  0.00  0.00  0.83  0.00
  YS02001745YS02001748    1.00   0.00  0.00  0.00  0.17  0.00  0.00  0.82  0.05  0.00
  YS02001748YS02001751    1.00   0.00  0.00  0.00  0.88  0.12  0.00  0.00  0.73  0.00
  YS02001751YS02001754    1.00   0.00  0.00  0.00  0.22  0.00  0.00  0.77  0.02  0.00
  YS02001754YS02001757    1.00   0.00  0.00  0.00  1.00  0.00  0.00  0.00  0.74  0.00
  YS02001757CaochengTiaoxuchi    1.00   0.00  0.00  0.00  0.98  0.02  0.00  0.00  0.61  0.00
  YS02001759YS02001757    1.00   0.00  0.00  0.00  0.98  0.02  0.00  0.00  0.52  0.00
  YS02001762YS02001759    1.00   0.00  0.00  0.00  1.00  0.00  0.00  0.00  0.03  0.00
  YS02001765YS02001762    1.00   0.00  0.00  0.00  1.00  0.00  0.00  0.00  0.62  0.00
  YS02001767YS02001765    1.00   0.00  0.00  0.00  1.00  0.00  0.00  0.00  0.01  0.00
  YS02001770YS02001767    1.00   0.00  0.00  0.00  1.00  0.00  0.00  0.00  0.00  0.00
  YS02001774YS02001770    1.00   0.00  0.13  0.00  0.71  0.00  0.16  0.00  0.02  0.00
  YS02001779YS02001774    1.00   0.00  0.00  0.00  1.00  0.00  0.00  0.00  0.72  0.00
  YS02001783YS02001784    1.00   0.00  0.16  0.00  0.84  0.00  0.00  0.00  0.54  0.00
  YS02001784YS02001785    1.00   0.00  0.00  0.00  1.00  0.00  0.00  0.00  0.15  0.00
  YS02001786YS02001788    1.00   0.00  0.00  0.00  0.80  0.20  0.00  0.00  0.00  0.00
  YS02001788YS02001790    1.00   0.00  0.00  0.00  0.21  0.79  0.00  0.00  0.78  0.00
  YS02001790YS02001791    1.00   0.00  0.00  0.00  0.01  0.99  0.00  0.00  0.16  0.00
  YS02001791YS02001793    1.00   0.00  0.00  0.00  0.00  1.00  0.00  0.00  0.01  0.00
  YS02001793JiankangQianchi    1.00   0.00  0.00  0.00  0.95  0.05  0.00  0.00  0.96  0.00
  YS02001882YS02001884    1.00   0.14  0.00  0.00  0.85  0.00  0.00  0.00  0.00  0.00
  YS02001884YS02001887    1.00   0.06  0.05  0.00  0.89  0.00  0.00  0.00  0.00  0.00
  YS02001887YS02001890    1.00   0.00  0.00  0.00  0.97  0.00  0.03  0.00  0.00  0.00
  YS02001890YS02001895    1.00   0.00  0.15  0.00  0.85  0.00  0.00  0.00  0.00  0.00
  YS02001895YS02001898    1.00   0.15  0.00  0.00  0.84  0.00  0.01  0.00  0.00  0.00
  YS02001898YS02001901    1.00   0.15  0.00  0.00  0.85  0.00  0.00  0.00  0.00  0.00
  YS02001901YS02001904    1.00   0.15  0.00  0.00  0.85  0.00  0.00  0.00  0.00  0.00
  YS02001904YS02001907    1.00   0.00  0.15  0.00  0.85  0.00  0.00  0.00  0.00  0.00
  YS02001907YS02006553    1.00   0.00  0.02  0.00  0.98  0.00  0.00  0.00  0.00  0.00
  YS02001910YS02001907    1.00   0.00  0.00  0.00  0.97  0.00  0.00  0.03  0.11  0.00
  YS02001915YS02001910    1.00   0.00  0.00  0.00  0.97  0.03  0.00  0.00  0.13  0.00
  YS02001918YS02001915    1.00   0.00  0.01  0.00  0.98  0.02  0.00  0.00  0.69  0.00
  YS02001920YS02001918    1.00   0.00  0.01  0.00  0.99  0.00  0.00  0.00  0.00  0.00
  YS02001923YS02001920    1.00   0.00  0.00  0.00  1.00  0.00  0.00  0.00  0.89  0.00
  YS02001926YS02001923    1.00   0.00  0.07  0.00  0.09  0.00  0.83  0.00  0.00  0.00
  YS02001929YS02001926    1.00   0.00  0.13  0.00  0.87  0.00  0.00  0.00  0.79  0.00
  YS02006553YS02006556    1.00   0.01  0.00  0.00  0.99  0.00  0.00  0.00  0.03  0.00
  YS02006556YS02006558    1.00   0.00  0.00  0.00  1.00  0.00  0.00  0.00  0.00  0.00
  YS02006558YS02006561    1.00   0.16  0.00  0.00  0.09  0.75  0.00  0.00  0.17  0.00
  YS02006561YS02001783    1.00   0.16  0.00  0.00  0.13  0.71  0.00  0.00  0.64  0.00
  YS02163301YS02001633    1.00   0.00  0.14  0.00  0.86  0.00  0.00  0.00  0.00  0.00
  YS02163601YS02164001    1.00   0.00  0.08  0.00  0.92  0.00  0.00  0.00  0.00  0.00
  YS02164001YS02001641    1.00   0.01  0.07  0.00  0.92  0.00  0.00  0.00  0.05  0.00
  
  
  *************************
  Conduit Surcharge Summary
  *************************
  
  ----------------------------------------------------------------------------
                                                           Hours        Hours 
                         --------- Hours Full --------   Above Full   Capacity
  Conduit                Both Ends  Upstream  Dnstream   Normal Flow   Limited
  ----------------------------------------------------------------------------
  WS02003072WS02003073        0.01      0.01      0.01      1.38         0.01
  WS02004404WS02004405        0.01      0.01      0.01      4.18         0.01
  WS02004405WS02004406        0.01      0.01      0.01      0.72         0.01
  WS02006109WS02006110        0.80      0.80      2.54      0.92         0.01
  WS02006110WS02006113        0.01      0.01      2.47      0.01         0.01
  WS02006111WS02006112        0.01      0.01      3.56      0.01         0.01
  WS02006112WS02006115        0.01      0.01      0.82      0.01         0.01
  WS02006228WS02006109        2.42      2.54      2.42      3.86         2.42
  WS02006229WS02006228        2.42      2.44      2.42      3.26         2.41
  WS02006230WS02006229        2.76      3.13      2.76      4.75         2.76
  WS02006231WS02006230        0.81      0.81      0.99      4.51         0.01
  WS02006232WS02006231        0.94      0.94      2.54      1.01         0.01
  WS02006234WS02006232        2.37      2.37      2.54      0.99         0.99
  WS02006235WS02006234        1.26      1.27      2.40      4.35         0.02
  WS02006238WS02006235        2.43      2.43      2.56      0.01         0.01
  WS02006239WS02006238        2.47      2.53      2.47      3.04         2.28
  WS02006240WS02006239        2.43      2.46      2.43      3.01         2.16
  WS02006242WS02006240        2.45      2.45      2.79      3.37         0.01
  WS02006243WS02006242        2.47      2.47      2.61      0.01         0.05
  WS02006245WS02006243        2.45      2.46      2.46      2.17         1.71
  WS02006247WS02006245        2.45      2.50      2.45      4.06         2.44
  WS02006248WS02006247        2.45      2.45      2.48      0.01         0.05
  WS02006249WS02006248        2.44      2.44      2.46      4.04         0.01
  WS02006251WS02006249        2.45      2.47      2.46      3.10         2.38
  WS02006252WS02006251        3.16      3.17      3.17      3.17         0.01
  WS02006256WS02006235        4.38      4.42      5.87      1.31         0.01
  YS02001580YS02001583        0.96      0.96      1.04      0.01         0.01
  YS02001583YS02001586        0.97      0.97      1.17      0.01         0.01
  YS02001586YS02001590        1.18      1.18      1.27      0.01         0.01
  YS02001590YS02001593        1.28      1.28      1.30      1.33         0.01
  YS02001593YS02001596        1.29      1.29      1.43      0.01         0.01
  YS02001596YS02001600        1.48      1.48      1.56      0.01         0.01
  YS02001600YS02001601        1.60      1.60      1.80      0.01         0.01
  YS02001601YS02001602        1.72      1.72      1.83      1.55         0.01
  YS02001602YS02001605        1.69      1.69      1.72      2.49         0.01
  YS02001605YS02001607        1.66      1.69      1.66      1.75         1.65
  YS02001607YS02001610        1.29      1.29      1.33      0.01         0.01
  YS02001610YS02001613        1.29      1.29      1.33      0.01         0.01
  YS02001613YS02001616        1.24      1.24      1.29      0.01         0.01
  YS02001616YS02001619        1.22      1.22      1.24      0.10         0.13
  YS02001619YS02001622        1.21      1.22      1.22      1.20         1.11
  YS02001622YS02001625        1.22      1.22      1.43      0.01         0.01
  YS02001625YS02001629        1.16      1.16      1.43      0.01         0.01
  YS02001629YS02163301        1.44      1.44      1.45      0.06         0.12
  YS02001633YS02163601        1.46      1.46      1.49      0.23         0.23
  YS02001641YS02001644        1.40      1.43      1.40      1.85         1.38
  YS02001644YS02001647        1.16      1.16      1.40      0.03         0.01
  YS02001647YS02001649        1.16      1.16      1.33      0.01         0.01
  YS02001649YS02001757        1.33      1.33      1.39      0.08         0.03
  YS02001652YS02001649        1.12      1.12      1.33      0.01         0.01
  YS02001655YS02001652        0.85      0.85      1.09      0.01         0.01
  YS02001658YS02001655        0.45      0.45      0.85      0.01         0.01
  YS02001661YS02001658        0.14      0.14      0.45      0.01         0.01
  YS02001664YS02001661        0.01      0.01      0.21      0.01         0.01
  YS02001745YS02001748        0.01      0.01      0.34      0.01         0.01
  YS02001748YS02001751        0.39      0.39      0.65      0.01         0.01
  YS02001751YS02001754        0.65      0.65      0.99      0.01         0.01
  YS02001754YS02001757        1.06      1.06      1.39      0.01         0.01
  YS02001757CaochengTiaoxuchi        1.38      1.39      2.37      0.52         0.48
  YS02001759YS02001757        1.32      1.32      1.39      0.01         0.04
  YS02001762YS02001759        1.28      1.28      1.32      0.01         0.02
  YS02001765YS02001762        1.23      1.23      1.28      0.01         0.01
  YS02001767YS02001765        1.18      1.18      1.23      0.01         0.02
  YS02001770YS02001767        1.17      1.18      1.18      0.81         0.73
  YS02001774YS02001770        1.14      1.14      1.26      0.01         0.01
  YS02001779YS02001774        0.98      0.98      1.26      0.01         0.01
  YS02001783YS02001784        0.77      0.80      0.77      0.99         0.77
  YS02001784YS02001785        0.64      0.77      0.64      1.36         0.64
  YS02001786YS02001788        0.01      0.64      0.01      1.16         0.01
  YS02001790YS02001791        0.01      0.01      0.01      0.75         0.01
  YS02001793JiankangQianchi        0.01      0.01      7.55      0.01         0.01
  YS02001882YS02001884        0.73      0.73      0.74      0.01         0.01
  YS02001884YS02001887        0.77      0.77      0.79      0.01         0.01
  YS02001887YS02001890        0.81      0.81      0.82      0.22         0.01
  YS02001890YS02001895        0.72      0.72      0.84      0.01         0.01
  YS02001895YS02001898        0.71      0.71      0.72      0.01         0.01
  YS02001898YS02001901        0.72      0.72      0.77      0.01         0.01
  YS02001901YS02001904        0.76      0.76      0.77      0.01         0.01
  YS02001904YS02001907        0.76      0.76      1.12      0.01         0.01
  YS02001907YS02006553        1.37      1.37      1.47      0.01         0.01
  YS02001910YS02001907        0.84      0.84      1.08      0.07         0.07
  YS02001915YS02001910        0.73      0.73      0.84      0.01         0.01
  YS02001918YS02001915        0.62      0.62      0.73      0.01         0.01
  YS02001920YS02001918        0.62      0.62      0.64      0.01         0.01
  YS02001923YS02001920        0.57      0.57      0.64      0.01         0.01
  YS02001926YS02001923        0.23      0.23      0.26      0.01         0.01
  YS02001929YS02001926        0.10      0.10      0.26      0.01         0.01
  YS02006553YS02006556        0.96      0.96      1.13      0.01         0.01
  YS02006556YS02006558        1.02      1.02      1.15      0.01         0.01
  YS02006558YS02006561        0.66      0.95      0.66      1.29         0.66
  YS02006561YS02001783        0.58      0.58      0.80      0.01         0.01
  YS02163301YS02001633        1.45      1.45      1.48      0.01         0.01
  YS02163601YS02164001        1.43      1.43      1.49      0.08         0.01
  YS02164001YS02001641        1.42      1.43      1.43      0.91         0.84
  
  
  ***************
  Pumping Summary
  ***************
  
  ---------------------------------------------------------------------------------------------------------
                                                  Min       Avg       Max     Total     Power    % Time Off
                        Percent   Number of      Flow      Flow      Flow    Volume     Usage    Pump Curve
  Pump                 Utilized   Start-Ups       LPS       LPS       LPS  10^6 ltr     Kw-hr    Low   High
  ---------------------------------------------------------------------------------------------------------
  CC-R1                   22.75           4      0.00    683.00    683.00     4.476     86.06    0.0    8.4
  CC-R2                   22.89           3      0.00    683.00    683.00     4.502     86.49    0.0    9.0
  CC-S1                   48.09          10      0.00    200.00    200.00     2.770     15.73    0.0    0.0
  CC-S2                   42.71           8      0.00    200.00    200.00     2.460     13.96    0.0    0.0
  JK-R1                    6.90          14      0.00   1000.00   1000.00     1.987     20.25    0.0    0.0
  JK-R2                    6.61          10      0.00   1000.00   1000.00     1.903     18.71    0.0    0.0
  JK-S                    16.27          15      0.00    300.00    300.00     1.406     21.34    0.0    0.0
  

  Analysis begun on:  Mon Apr 14 21:01:00 2025
  Analysis ended on:  Mon Apr 14 21:01:01 2025
  Total elapsed time: 00:00:01