
  EPA STORM WATER MANAGEMENT MODEL - VERSION 5.2 (Build 5.2.4)
  PYSWMM TOOLKIT API - VERSION v1.0 (2023-11-27)
  ------------------------------------------------------------

  WARNING 04: minimum elevation drop used for Conduit WS02004404WS02004405
  WARNING 03: negative offset ignored for Link YS02001904YS02001907
  
  ****************
  Analysis Options
  ****************
  Flow Units ............... LPS
  Process Models:
    Rainfall/Runoff ........ YES
    RDII ................... NO
    Snowmelt ............... NO
    Groundwater ............ NO
    Flow Routing ........... YES
    Ponding Allowed ........ NO
    Water Quality .......... NO
  Infiltration Method ...... HORTON
  Flow Routing Method ...... DYNWAVE
  Surcharge Method ......... EXTRAN
  Starting Date ............ 08/28/2015 08:00:00
  Ending Date .............. 08/28/2015 16:00:00
  Antecedent Dry Days ...... 8.0
  Report Time Step ......... 00:01:00
  Wet Time Step ............ 00:01:00
  Dry Time Step ............ 00:01:00
  Routing Time Step ........ 30.00 sec
  Variable Time Step ....... YES
  Maximum Trials ........... 8
  Number of Threads ........ 4
  Head Tolerance ........... 0.001500 m
  
  
  **************************        Volume         Depth
  Runoff Quantity Continuity     hectare-m            mm
  **************************     ---------       -------
  Total Precipitation ......         2.710        81.689
  Evaporation Loss .........         0.000         0.000
  Infiltration Loss ........         0.103         3.094
  Surface Runoff ...........         2.575        77.618
  Final Storage ............         0.033         0.996
  Continuity Error (%) .....        -0.023
  
  
  **************************        Volume        Volume
  Flow Routing Continuity        hectare-m      10^6 ltr
  **************************     ---------     ---------
  Dry Weather Inflow .......         0.025         0.251
  Wet Weather Inflow .......         2.574        25.744
  Groundwater Inflow .......         0.000         0.000
  RDII Inflow ..............         0.000         0.000
  External Inflow ..........         0.083         0.834
  External Outflow .........         1.681        16.806
  Flooding Loss ............         1.055        10.554
  Evaporation Loss .........         0.000         0.000
  Exfiltration Loss ........         0.000         0.000
  Initial Stored Volume ....         0.243         2.431
  Final Stored Volume ......         0.195         1.948
  Continuity Error (%) .....        -0.166
  
  
  *************************
  Highest Continuity Errors
  *************************
  Node YS02001583 (-5.20%)
  Node YS02001884 (4.95%)
  
  
  ***************************
  Time-Step Critical Elements
  ***************************
  Link WS02006252WS02006251 (53.37%)
  Link WS02006238WS02006235 (10.03%)
  Link WS02004404WS02004405 (8.68%)
  Link YS02001791YS02001793 (8.37%)
  Link WS02006235WS02006234 (7.66%)
  
  
  ********************************
  Highest Flow Instability Indexes
  ********************************
  Link WS02006113WS02006111 (52)
  Link WS02006111WS02006112 (28)
  Link WS02006238WS02006235 (14)
  Link WS02006252WS02006251 (14)
  Link WS02006256WS02006235 (13)
  
  
  *********************************
  Most Frequent Nonconverging Nodes
  *********************************
  Node CC-1 (9.32%)
  Node CC-2 (9.32%)
  Node JK-1 (9.32%)
  Node JK-2 (9.32%)
  Node WSC (9.32%)
  
  
  *************************
  Routing Time Step Summary
  *************************
  Minimum Time Step           :     0.01 sec
  Average Time Step           :     1.76 sec
  Maximum Time Step           :     7.04 sec
  % of Time in Steady State   :     0.00
  Average Iterations per Step :     2.88
  % of Steps Not Converging   :     9.32
  Time Step Frequencies       :
     30.000 - 13.228 sec      :     0.00 %
     13.228 -  5.833 sec      :     7.10 %
      5.833 -  2.572 sec      :    16.66 %
      2.572 -  1.134 sec      :    18.05 %
      1.134 -  0.500 sec      :    58.19 %
  
  
  ***************************
  Subcatchment Runoff Summary
  ***************************
  
  ------------------------------------------------------------------------------------------------------------------------------
                            Total      Total      Total      Total     Imperv       Perv      Total       Total     Peak  Runoff
                           Precip      Runon       Evap      Infil     Runoff     Runoff     Runoff      Runoff   Runoff   Coeff
  Subcatchment                 mm         mm         mm         mm         mm         mm         mm    10^6 ltr      LPS
  ------------------------------------------------------------------------------------------------------------------------------
  sub60                     81.69       0.00       0.00       1.84      70.69       7.97      78.66        1.03   759.21   0.963
  sub61                     81.69       0.00       0.00       2.67      66.68      11.22      77.90        1.43  1056.54   0.954
  sub62                     81.69       0.00       0.00       1.22      73.87       5.31      79.19        2.17  1480.99   0.969
  sub63                     81.69       0.00       0.00       4.95      57.03      18.75      75.78        1.72  1203.95   0.928
  sub64                     81.69       0.00       0.00       2.50      68.23       9.76      77.99        1.87  1225.00   0.955
  sub65                     81.69       0.00       0.00       2.16      69.82       8.46      78.28        2.16  1373.96   0.958
  sub66                     81.69       0.00       0.00       6.18      56.92      17.51      74.43        3.47  1846.91   0.911
  sub67                     81.69       0.00       0.00       1.18      73.92       5.36      79.28        1.47  1134.01   0.970
  sub68                     81.69       0.00       0.00       2.21      69.07       9.23      78.30        2.15  1523.79   0.959
  sub69                     81.69       0.00       0.00       1.99      69.33      10.26      79.59        2.95  1826.33   0.974
  sub70                     81.69       0.00       0.00       6.73      53.75      21.04      74.79        2.16  1038.85   0.916
  sub71                     81.69       0.00       0.00       1.26      73.83       5.28      79.11        2.07  1323.00   0.968
  sub72                     81.69       0.00       0.00       1.12      74.57       4.60      79.17        1.09   646.61   0.969
  
  
  ******************
  Node Depth Summary
  ******************
  
  ---------------------------------------------------------------------------------
                                 Average  Maximum  Maximum  Time of Max    Reported
                                   Depth    Depth      HGL   Occurrence   Max Depth
  Node                 Type       Meters   Meters   Meters  days hr:min      Meters
  ---------------------------------------------------------------------------------
  WS02003060           JUNCTION     0.25     0.38     5.31     0  02:47        0.38
  WS02003066           JUNCTION     0.21     0.30     5.85     0  02:47        0.30
  WS02003067           JUNCTION     0.53     0.70     6.02     0  02:47        0.70
  WS02003069           JUNCTION     0.28     0.43     5.01     0  02:48        0.43
  WS02003072           JUNCTION     0.35     0.50     4.87     0  02:49        0.50
  WS02003073           JUNCTION     0.20     0.30     4.36     0  02:49        0.30
  WS02004401           JUNCTION     0.61     0.85     6.85     0  02:45        0.85
  WS02004402           JUNCTION     0.64     0.88     6.84     0  02:45        0.88
  WS02004403           JUNCTION     0.67     0.89     6.82     0  02:46        0.89
  WS02004404           JUNCTION     0.74     0.96     6.81     0  02:46        0.96
  WS02004405           JUNCTION     0.74     0.96     6.81     0  02:46        0.96
  WS02004406           JUNCTION     0.75     0.96     6.79     0  02:46        0.96
  WS02004407           JUNCTION     0.19     0.30     6.61     0  02:46        0.30
  WS02004409           JUNCTION     0.42     0.67     6.44     0  02:46        0.67
  WS02004410           JUNCTION     0.44     0.68     6.40     0  02:47        0.68
  WS02004411           JUNCTION     0.46     0.69     6.37     0  02:47        0.69
  WS02004412           JUNCTION     0.48     0.70     6.34     0  02:47        0.70
  WS02004413           JUNCTION     0.64     0.86     6.33     0  02:47        0.86
  WS02006109           JUNCTION     0.67     1.39     8.01     0  02:02        1.09
  WS02006110           JUNCTION     0.68     1.37     7.96     0  02:02        1.02
  WS02006111           JUNCTION     0.19     0.29     6.99     0  02:58        0.29
  WS02006112           JUNCTION     0.77     1.09     6.97     0  02:47        1.05
  WS02006113           JUNCTION     0.29     0.46     7.35     0  03:21        0.46
  WS02006115           JUNCTION     0.50     0.75     6.89     0  02:15        0.75
  WS02006116           JUNCTION     0.58     0.83     6.87     0  02:45        0.83
  WS02006228           JUNCTION     0.66     1.39     8.05     0  02:02        1.12
  WS02006229           JUNCTION     0.63     1.30     8.00     0  02:02        1.10
  WS02006230           JUNCTION     0.63     1.32     8.06     0  02:02        1.23
  WS02006231           JUNCTION     0.44     1.18     8.30     0  02:46        0.99
  WS02006232           JUNCTION     0.57     1.61     8.65     0  02:01        1.19
  WS02006234           JUNCTION     0.49     1.81     8.97     0  02:01        1.25
  WS02006235           JUNCTION     0.53     2.00     9.16     0  02:01        1.38
  WS02006238           JUNCTION     0.56     2.15     9.29     0  02:01        1.42
  WS02006239           JUNCTION     0.53     2.03     9.24     0  02:01        1.43
  WS02006240           JUNCTION     0.49     1.90     9.19     0  02:01        1.46
  WS02006242           JUNCTION     0.57     1.55     8.82     0  02:01        1.55
  WS02006243           JUNCTION     0.47     1.44     8.86     0  02:17        1.39
  WS02006245           JUNCTION     0.47     1.38     8.86     0  02:47        1.38
  WS02006247           JUNCTION     0.49     1.39     8.89     0  02:44        1.39
  WS02006248           JUNCTION     0.45     1.10     8.69     0  02:01        1.10
  WS02006249           JUNCTION     0.49     1.09     8.69     0  02:02        1.09
  WS02006251           JUNCTION     0.48     1.37     9.04     0  02:02        1.19
  WS02006252           JUNCTION     0.36     1.50     9.74     0  00:00        0.80
  WS02006256           JUNCTION     0.93     2.35     9.28     0  00:00        2.35
  WSF200               JUNCTION     0.18     0.29     5.52     0  02:47        0.29
  YS02001580           JUNCTION     0.08     1.05     9.59     0  01:59        0.77
  YS02001583           JUNCTION     0.12     1.08     9.58     0  01:59        0.82
  YS02001586           JUNCTION     0.18     1.13     9.30     0  01:59        1.13
  YS02001590           JUNCTION     0.27     1.40     9.26     0  01:59        1.38
  YS02001593           JUNCTION     0.21     1.34     9.20     0  01:59        1.31
  YS02001596           JUNCTION     0.29     1.68     9.10     0  01:59        1.66
  YS02001600           JUNCTION     0.34     1.87     9.00     0  01:56        1.87
  YS02001601           JUNCTION     0.53     2.06     8.90     0  01:56        2.06
  YS02001602           JUNCTION     0.44     1.87     8.77     0  02:01        1.87
  YS02001605           JUNCTION     0.41     1.78     8.68     0  02:12        1.78
  YS02001607           JUNCTION     0.41     1.68     8.53     0  02:44        1.68
  YS02001610           JUNCTION     0.46     1.68     8.48     0  02:02        1.68
  YS02001613           JUNCTION     0.41     1.70     8.54     0  02:44        1.70
  YS02001616           JUNCTION     0.34     1.61     8.52     0  02:11        1.61
  YS02001619           JUNCTION     0.32     1.61     8.54     0  02:07        1.61
  YS02001622           JUNCTION     0.31     1.62     8.52     0  02:12        1.62
  YS02001625           JUNCTION     0.59     1.78     8.38     0  02:02        1.78
  YS02001629           JUNCTION     0.43     1.85     8.40     0  02:03        1.85
  YS02001633           JUNCTION     0.51     2.08     8.53     0  02:12        2.08
  YS02001641           JUNCTION     0.50     2.05     8.49     0  02:12        2.05
  YS02001644           JUNCTION     0.50     1.92     8.35     0  02:05        1.92
  YS02001647           JUNCTION     0.29     1.87     8.48     0  02:12        1.87
  YS02001649           JUNCTION     0.33     2.03     8.42     0  02:12        2.00
  YS02001652           JUNCTION     0.23     1.89     8.48     0  02:12        1.87
  YS02001655           JUNCTION     0.18     1.73     8.58     0  02:05        1.69
  YS02001658           JUNCTION     0.13     1.65     8.79     0  02:05        1.48
  YS02001661           JUNCTION     0.16     1.31     8.71     0  02:12        1.29
  YS02001664           JUNCTION     0.05     0.81     8.73     0  02:12        0.80
  YS02001745           JUNCTION     0.07     0.97     8.49     0  02:12        0.96
  YS02001748           JUNCTION     0.13     1.48     8.56     0  02:12        1.48
  YS02001751           JUNCTION     0.16     1.64     8.52     0  02:12        1.64
  YS02001754           JUNCTION     0.21     1.84     8.45     0  02:12        1.84
  YS02001757           JUNCTION     0.36     2.17     8.43     0  02:12        2.17
  YS02001759           JUNCTION     0.30     2.21     8.57     0  02:12        2.21
  YS02001762           JUNCTION     0.29     2.09     8.49     0  02:12        2.09
  YS02001765           JUNCTION     0.27     2.07     8.52     0  02:12        2.07
  YS02001767           JUNCTION     0.27     2.03     8.52     0  02:12        2.03
  YS02001770           JUNCTION     0.28     1.95     8.44     0  02:07        1.95
  YS02001774           JUNCTION     0.34     2.04     8.46     0  02:12        2.01
  YS02001779           JUNCTION     0.19     1.68     8.37     0  02:03        1.68
  YS02001783           JUNCTION     0.22     1.33     7.47     0  02:12        1.24
  YS02001784           JUNCTION     0.23     1.18     7.25     0  02:12        1.12
  YS02001786           JUNCTION     0.20     0.93     6.96     0  02:12        0.88
  YS02001788           JUNCTION     0.14     0.63     6.60     0  02:11        0.63
  YS02001790           JUNCTION     0.17     0.73     6.38     0  02:12        0.72
  YS02001791           JUNCTION     0.11     0.45     5.92     0  02:12        0.44
  YS02001793           JUNCTION     0.06     0.29     5.12     0  02:06        0.29
  YS02001882           JUNCTION     0.28     1.83     8.55     0  02:12        1.83
  YS02001884           JUNCTION     0.38     1.93     8.55     0  02:12        1.93
  YS02001887           JUNCTION     0.45     2.00     8.54     0  02:12        2.00
  YS02001890           JUNCTION     0.48     1.81     8.32     0  02:03        1.81
  YS02001895           JUNCTION     0.25     1.60     8.35     0  02:12        1.60
  YS02001898           JUNCTION     0.26     1.71     8.45     0  02:12        1.71
  YS02001901           JUNCTION     0.38     1.71     8.32     0  02:12        1.71
  YS02001904           JUNCTION     0.36     1.64     8.27     0  02:03        1.64
  YS02001907           JUNCTION     0.68     1.96     8.25     0  02:03        1.96
  YS02001910           JUNCTION     0.48     2.01     8.52     0  02:13        2.01
  YS02001915           JUNCTION     0.29     2.00     8.72     0  02:12        2.00
  YS02001918           JUNCTION     0.16     1.81     8.88     0  02:04        1.71
  YS02001920           JUNCTION     0.23     2.06     9.07     0  02:04        1.79
  YS02001923           JUNCTION     0.12     1.94     9.20     0  02:04        1.57
  YS02001926           JUNCTION     0.15     1.84     9.28     0  02:04        1.41
  YS02001929           JUNCTION     0.09     1.78     9.47     0  02:04        1.18
  YS02006553           JUNCTION     0.69     2.09     8.38     0  02:12        2.09
  YS02006556           JUNCTION     0.66     2.24     8.55     0  02:12        2.24
  YS02006558           JUNCTION     0.70     2.50     8.77     0  02:12        2.50
  YS02006561           JUNCTION     0.14     1.03     7.69     0  02:12        0.91
  YS02163301           JUNCTION     0.45     2.03     8.55     0  02:12        2.03
  YS02163601           JUNCTION     0.55     2.08     8.48     0  02:12        2.08
  YS02164001           JUNCTION     0.49     2.01     8.46     0  02:12        2.01
  CC-1                 OUTFALL      0.00     0.00     0.00     0  00:00        0.00
  CC-2                 OUTFALL      0.00     0.00     0.00     0  00:00        0.00
  JK-1                 OUTFALL      0.00     0.00     0.00     0  00:00        0.00
  JK-2                 OUTFALL      0.00     0.00     0.00     0  00:00        0.00
  WSC                  OUTFALL      0.20     0.30     0.97     0  02:49        0.30
  CC-storage           STORAGE      0.89     1.87     7.37     0  02:39        1.87
  JK-storage           STORAGE      3.22     4.23     5.03     0  02:05        4.22
  
  
  *******************
  Node Inflow Summary
  *******************
  
  -------------------------------------------------------------------------------------------------
                                  Maximum  Maximum                  Lateral       Total        Flow
                                  Lateral    Total  Time of Max      Inflow      Inflow     Balance
                                   Inflow   Inflow   Occurrence      Volume      Volume       Error
  Node                 Type           LPS      LPS  days hr:min    10^6 ltr    10^6 ltr     Percent
  -------------------------------------------------------------------------------------------------
  WS02003060           JUNCTION     16.53   551.59     0  02:47       0.476        6.09       0.033
  WS02003066           JUNCTION      0.00   534.91     0  02:48           0        5.61       0.022
  WS02003067           JUNCTION      0.00   534.95     0  02:47           0        5.62       0.072
  WS02003069           JUNCTION      0.32   551.79     0  02:48     0.00922         6.1       0.057
  WS02003072           JUNCTION      0.00   551.74     0  02:48           0        6.09       0.103
  WS02003073           JUNCTION      1.82   553.54     0  02:49      0.0524        6.14       0.081
  WS02004401           JUNCTION      0.00   537.89     0  02:45           0        5.71       0.172
  WS02004402           JUNCTION      0.00   537.60     0  02:45           0        5.71       0.176
  WS02004403           JUNCTION      0.00   537.38     0  02:45           0         5.7       0.172
  WS02004404           JUNCTION      0.16   537.03     0  02:46     0.00467        5.69       0.172
  WS02004405           JUNCTION      0.04   537.29     0  02:46      0.0011        5.68       0.188
  WS02004406           JUNCTION      0.00   537.52     0  02:46           0        5.67       0.357
  WS02004407           JUNCTION      0.00   536.72     0  02:46           0        5.65       0.016
  WS02004409           JUNCTION      0.00   536.28     0  02:46           0        5.65       0.041
  WS02004410           JUNCTION      0.00   535.70     0  02:46           0        5.65       0.069
  WS02004411           JUNCTION      0.00   535.49     0  02:47           0        5.64       0.091
  WS02004412           JUNCTION      0.00   535.20     0  02:47           0        5.64       0.124
  WS02004413           JUNCTION      0.00   535.17     0  02:47           0        5.63       0.223
  WS02006109           JUNCTION      1.23   560.06     0  03:21      0.0354        5.76       0.170
  WS02006110           JUNCTION      0.00   562.11     0  03:21           0        5.75       0.108
  WS02006111           JUNCTION      0.00   561.27     0  03:07           0        5.74       0.010
  WS02006112           JUNCTION      0.00   542.17     0  03:08           0        5.74       0.302
  WS02006113           JUNCTION      0.00   579.92     0  02:03           0        5.75       0.029
  WS02006115           JUNCTION      0.00   547.64     0  03:00           0        5.73       0.107
  WS02006116           JUNCTION      0.00   539.90     0  02:38           0        5.72       0.095
  WS02006228           JUNCTION      0.00   555.44     0  03:21           0        5.73       0.076
  WS02006229           JUNCTION      0.00   554.77     0  03:21           0        5.73       0.070
  WS02006230           JUNCTION     10.28   587.35     0  02:36       0.296        5.74       0.054
  WS02006231           JUNCTION      0.00   610.49     0  02:02           0        5.44      -0.018
  WS02006232           JUNCTION      0.00   602.42     0  02:02           0        5.45       0.128
  WS02006234           JUNCTION      0.00   577.03     0  02:02           0        5.44      -0.135
  WS02006235           JUNCTION      0.00   567.41     0  02:02           0        5.52       0.126
  WS02006238           JUNCTION      0.00   429.24     0  05:05           0        4.67      -0.087
  WS02006239           JUNCTION      0.00   429.70     0  05:05           0        4.63      -0.090
  WS02006240           JUNCTION      0.00   428.05     0  05:05           0         4.6      -0.038
  WS02006242           JUNCTION      0.00   427.27     0  05:05           0        4.57      -0.033
  WS02006243           JUNCTION      0.00   426.30     0  05:05           0        4.55      -0.097
  WS02006245           JUNCTION      0.00   425.45     0  05:05           0        4.55       0.130
  WS02006247           JUNCTION      0.00   426.20     0  05:05           0        4.55      -0.017
  WS02006248           JUNCTION      0.00   426.75     0  05:05           0        4.55       0.023
  WS02006249           JUNCTION      0.00   459.02     0  00:00           0        4.76       0.134
  WS02006251           JUNCTION      0.08   404.58     0  02:17     0.00222        4.76       0.012
  WS02006252           JUNCTION      0.00   400.00     0  00:00           0        4.75      -0.060
  WS02006256           JUNCTION      0.00   300.00     0  00:00           0        1.28      -0.877
  WSF200               JUNCTION      0.00   534.92     0  02:47           0        5.61       0.006
  YS02001580           JUNCTION      0.00    77.14     0  01:59           0     0.00421       2.273
  YS02001583           JUNCTION      0.00   129.56     0  01:58           0      0.0153      -4.943
  YS02001586           JUNCTION   1038.85  1038.85     0  02:15        2.16        2.17       0.048
  YS02001590           JUNCTION      0.00   318.30     0  02:12           0        1.48      -0.017
  YS02001593           JUNCTION      0.00   318.14     0  02:32           0        1.48       0.007
  YS02001596           JUNCTION      0.00   318.11     0  02:30           0        1.48      -0.019
  YS02001600           JUNCTION      0.00   318.27     0  02:12           0        1.49       0.013
  YS02001601           JUNCTION   1826.33  2143.64     0  02:14        2.95        4.43       0.024
  YS02001602           JUNCTION      0.00   501.38     0  01:58           0        2.44       0.022
  YS02001605           JUNCTION      0.00   501.79     0  01:58           0        2.29       0.028
  YS02001607           JUNCTION      0.00   501.16     0  01:58           0        2.29       0.085
  YS02001610           JUNCTION      0.00   951.48     0  02:17           0        2.78       0.082
  YS02001613           JUNCTION      0.00   615.11     0  02:17           0        2.17       0.068
  YS02001616           JUNCTION      0.00   615.20     0  02:17           0        2.17       0.016
  YS02001619           JUNCTION   1846.91  1846.91     0  02:14        3.47        5.15      -0.003
  YS02001622           JUNCTION      0.00  1053.91     0  02:16           0        4.62      -0.001
  YS02001625           JUNCTION      0.00  1504.79     0  02:17           0        5.01       0.200
  YS02001629           JUNCTION      0.00   912.85     0  02:02           0        3.62       0.007
  YS02001633           JUNCTION   1374.16  1374.16     0  02:14        2.16         5.3       0.064
  YS02001641           JUNCTION      0.00  1302.75     0  02:02           0        4.82       0.055
  YS02001644           JUNCTION   1225.04  2178.81     0  02:13        1.87        6.74       0.049
  YS02001647           JUNCTION      0.00  1662.69     0  02:02           0        5.63       0.006
  YS02001649           JUNCTION      0.00  1831.44     0  02:01           0         7.3       0.001
  YS02001652           JUNCTION      0.00  1217.78     0  02:13           0        1.73      -0.060
  YS02001655           JUNCTION      0.15  1217.69     0  02:13     0.00443        1.73       0.013
  YS02001658           JUNCTION      0.00  1218.04     0  02:13           0        1.72      -0.029
  YS02001661           JUNCTION      0.00  1216.58     0  02:13           0        1.72       0.017
  YS02001664           JUNCTION   1203.95  1203.95     0  02:13        1.72        1.72      -0.011
  YS02001745           JUNCTION    759.22   759.22     0  02:13        1.03        1.03       0.131
  YS02001748           JUNCTION      0.04   768.40     0  02:13      0.0013        1.03      -0.256
  YS02001751           JUNCTION      0.01   769.35     0  02:13    0.000317        1.04       0.085
  YS02001754           JUNCTION      0.26   770.45     0  02:13     0.00749        1.05      -0.145
  YS02001757           JUNCTION      0.00  3084.53     0  02:11           0        11.4       0.007
  YS02001759           JUNCTION   1056.58  1349.84     0  02:13        1.43        3.07      -0.008
  YS02001762           JUNCTION      0.00   697.70     0  02:07           0        1.64      -0.003
  YS02001765           JUNCTION      0.00   699.14     0  02:07           0        1.64      -0.002
  YS02001767           JUNCTION      0.54   700.56     0  02:07      0.0154        1.64       0.009
  YS02001770           JUNCTION   1481.14  1481.14     0  02:13        2.17        2.22      -0.014
  YS02001774           JUNCTION      0.00   851.51     0  02:15           0       0.551       0.227
  YS02001779           JUNCTION      0.01   851.29     0  02:15    0.000144       0.507      -0.168
  YS02001783           JUNCTION      0.00  1182.10     0  02:12           0        4.48       0.005
  YS02001784           JUNCTION      1.06  1179.09     0  02:12      0.0305        4.51       0.010
  YS02001786           JUNCTION      0.06  1182.00     0  02:12     0.00162        4.52       0.017
  YS02001788           JUNCTION      0.07  1183.06     0  02:12     0.00204        4.52       0.007
  YS02001790           JUNCTION      0.15  1180.68     0  02:12     0.00446        4.52       0.028
  YS02001791           JUNCTION      0.00  1301.61     0  02:12           0        4.52      -0.036
  YS02001793           JUNCTION      0.00  1259.82     0  02:12           0        4.52       0.005
  YS02001882           JUNCTION      0.00    36.54     0  02:01           0      0.0132       3.944
  YS02001884           JUNCTION      0.00    48.66     0  02:00           0      0.0495       5.213
  YS02001887           JUNCTION   1134.46  1135.06     0  02:13        1.49        1.52       0.277
  YS02001890           JUNCTION      0.00  1135.25     0  02:13           0        1.48       0.343
  YS02001895           JUNCTION      0.00   519.71     0  02:12           0        1.24       0.128
  YS02001898           JUNCTION      0.00   519.27     0  02:12           0        1.24       0.026
  YS02001901           JUNCTION      0.00   518.67     0  02:13           0        1.24       0.267
  YS02001904           JUNCTION      0.00   521.47     0  02:12           0        1.24       0.227
  YS02001907           JUNCTION      0.00  2833.97     0  02:13           0        4.56       0.404
  YS02001910           JUNCTION      0.00  1974.16     0  02:14           0        3.24       0.224
  YS02001915           JUNCTION   1323.02  1974.13     0  02:14        2.07        3.27       0.049
  YS02001918           JUNCTION      0.00   651.58     0  02:13           0        1.22       0.011
  YS02001920           JUNCTION      2.87   651.05     0  02:14      0.0827        1.21       0.092
  YS02001923           JUNCTION      0.04   647.76     0  02:13     0.00109        1.11       0.008
  YS02001926           JUNCTION      0.05   647.54     0  02:14      0.0015         1.1      -0.010
  YS02001929           JUNCTION    646.61   646.61     0  02:14        1.09        1.09      -0.046
  YS02006553           JUNCTION      0.00   803.13     0  02:31           0        2.52       0.474
  YS02006556           JUNCTION      0.00   802.17     0  02:31           0        2.52       0.319
  YS02006558           JUNCTION   1524.67  1524.67     0  02:13        2.18         4.6       0.070
  YS02006561           JUNCTION      0.00  1176.87     0  02:12           0        4.48       0.001
  YS02163301           JUNCTION      0.00   915.33     0  02:02           0        3.61       0.042
  YS02163601           JUNCTION      0.11  1307.37     0  02:02     0.00317        4.82       0.103
  YS02164001           JUNCTION      0.00  1305.94     0  02:02           0        4.82       0.048
  CC-1                 OUTFALL       0.00   683.00     0  00:00           0        3.93       0.000
  CC-2                 OUTFALL       0.00   683.00     0  00:00           0        3.51       0.000
  JK-1                 OUTFALL       0.00  1000.00     0  00:00           0        2.04       0.000
  JK-2                 OUTFALL       0.00  1000.00     0  00:00           0        1.19       0.000
  WSC                  OUTFALL       0.00   553.47     0  02:49           0        6.13       0.000
  CC-storage           STORAGE       0.00  3086.61     0  02:12           0        13.6      -0.194
  JK-storage           STORAGE       0.00  1261.12     0  02:12           0        4.67       0.050
  
  
  **********************
  Node Surcharge Summary
  **********************
  
  Surcharging occurs when water rises above the top of the highest conduit.
  ---------------------------------------------------------------------
                                               Max. Height   Min. Depth
                                   Hours       Above Crown    Below Rim
  Node                 Type      Surcharged         Meters       Meters
  ---------------------------------------------------------------------
  WS02006109           JUNCTION        2.12          0.570        1.250
  WS02006110           JUNCTION        0.66          0.462        1.388
  WS02006112           JUNCTION        0.72          0.086        1.594
  WS02006228           JUNCTION        2.11          0.564        1.636
  WS02006229           JUNCTION        2.13          0.502        1.948
  WS02006230           JUNCTION        0.70          0.238        1.332
  WS02006231           JUNCTION        0.80          0.472        1.058
  WS02006232           JUNCTION        2.20          0.912        0.568
  WS02006234           JUNCTION        1.13          1.089        0.151
  WS02006235           JUNCTION        2.08          1.290        0.000
  WS02006238           JUNCTION        2.13          1.430        0.000
  WS02006239           JUNCTION        2.09          1.290        0.000
  WS02006240           JUNCTION        2.11          1.192        0.198
  WS02006242           JUNCTION        2.23          0.820        0.000
  WS02006243           JUNCTION        2.12          0.726        0.044
  WS02006245           JUNCTION        2.11          0.666        0.184
  WS02006247           JUNCTION        2.14          0.681        0.079
  WS02006248           JUNCTION        2.10          0.380        0.000
  WS02006249           JUNCTION        2.12          0.390        0.000
  WS02006251           JUNCTION        0.87          0.339        0.841
  WS02006252           JUNCTION        2.47          1.100        0.000
  WS02006256           JUNCTION        5.63          2.050        0.000
  YS02001580           JUNCTION        0.76          0.450        0.000
  YS02001583           JUNCTION        0.77          0.439        0.061
  YS02001586           JUNCTION        0.90          0.510        0.000
  YS02001590           JUNCTION        0.98          0.750        0.000
  YS02001593           JUNCTION        0.99          0.717        0.123
  YS02001596           JUNCTION        1.11          0.953        0.117
  YS02001600           JUNCTION        1.26          1.190        0.000
  YS02001601           JUNCTION        1.57          1.440        0.000
  YS02001602           JUNCTION        1.47          1.270        0.000
  YS02001605           JUNCTION        1.42          1.180        0.000
  YS02001607           JUNCTION        0.99          0.680        0.000
  YS02001610           JUNCTION        1.02          0.680        0.000
  YS02001613           JUNCTION        0.99          0.700        0.000
  YS02001616           JUNCTION        0.94          0.610        0.000
  YS02001619           JUNCTION        0.93          0.610        0.000
  YS02001622           JUNCTION        0.93          0.620        0.000
  YS02001625           JUNCTION        1.12          0.780        0.000
  YS02001629           JUNCTION        0.88          0.470        0.000
  YS02001633           JUNCTION        1.15          1.060        0.000
  YS02001641           JUNCTION        1.10          1.050        0.050
  YS02001644           JUNCTION        1.08          0.920        0.000
  YS02001647           JUNCTION        0.86          0.868        0.032
  YS02001649           JUNCTION        1.00          1.025        0.025
  YS02001652           JUNCTION        0.81          0.857        0.273
  YS02001655           JUNCTION        0.63          0.728        0.472
  YS02001658           JUNCTION        0.37          0.649        0.651
  YS02001661           JUNCTION        0.13          0.235        1.155
  YS02001748           JUNCTION        0.30          0.398        0.792
  YS02001751           JUNCTION        0.50          0.644        0.556
  YS02001754           JUNCTION        0.73          0.792        0.358
  YS02001757           JUNCTION        1.07          1.172        0.038
  YS02001759           JUNCTION        0.99          1.210        0.000
  YS02001762           JUNCTION        0.96          1.093        0.057
  YS02001765           JUNCTION        0.91          1.065        0.035
  YS02001767           JUNCTION        0.88          1.030        0.000
  YS02001770           JUNCTION        0.85          0.920        0.000
  YS02001774           JUNCTION        0.94          1.039        0.011
  YS02001779           JUNCTION        0.71          0.680        0.000
  YS02001783           JUNCTION        0.65          0.526        1.074
  YS02001784           JUNCTION        0.62          0.378        1.112
  YS02001786           JUNCTION        0.51          0.133        1.297
  YS02001882           JUNCTION        0.59          0.830        0.000
  YS02001884           JUNCTION        0.60          0.870        0.000
  YS02001887           JUNCTION        0.64          0.950        0.000
  YS02001890           JUNCTION        0.65          0.760        0.000
  YS02001895           JUNCTION        0.58          0.598        0.152
  YS02001898           JUNCTION        0.57          0.681        0.059
  YS02001901           JUNCTION        0.62          0.712        0.158
  YS02001904           JUNCTION        0.61          0.643        0.207
  YS02001907           JUNCTION        0.90          0.950        0.000
  YS02001910           JUNCTION        0.68          1.010        0.090
  YS02001915           JUNCTION        0.59          1.000        0.000
  YS02001918           JUNCTION        0.49          0.810        0.000
  YS02001920           JUNCTION        0.51          1.058        0.082
  YS02001923           JUNCTION        0.20          0.729        0.091
  YS02001926           JUNCTION        0.24          0.836        0.064
  YS02001929           JUNCTION        0.09          0.780        0.000
  YS02006553           JUNCTION        0.91          1.092        0.098
  YS02006556           JUNCTION        0.79          1.201        0.149
  YS02006558           JUNCTION        0.77          1.400        0.000
  YS02006561           JUNCTION        0.46          0.231        0.919
  YS02163301           JUNCTION        1.13          1.030        0.000
  YS02163601           JUNCTION        1.19          1.080        0.000
  YS02164001           JUNCTION        1.11          1.007        0.093
  
  
  *********************
  Node Flooding Summary
  *********************
  
  Flooding refers to all water that overflows a node, whether it ponds or not.
  --------------------------------------------------------------------------
                                                             Total   Maximum
                                 Maximum   Time of Max       Flood    Ponded
                        Hours       Rate    Occurrence      Volume     Depth
  Node                 Flooded       LPS   days hr:min    10^6 ltr    Meters
  --------------------------------------------------------------------------
  WS02006235              0.01     31.17      0  02:01       0.000     0.000
  WS02006238              0.01     21.87      0  02:01       0.000     0.000
  WS02006239              0.01      7.71      0  02:01       0.000     0.000
  WS02006242              0.01     29.00      0  02:02       0.000     0.000
  WS02006248              0.01     20.73      0  02:54       0.000     0.000
  WS02006249              0.84     92.34      0  03:21       0.201     0.000
  WS02006252              0.01    245.63      0  00:00       0.000     0.000
  WS02006256              1.18    293.19      0  00:00       0.395     0.000
  YS02001580              0.01     48.82      0  01:59       0.000     0.000
  YS02001586              0.62    721.43      0  02:15       0.676     0.000
  YS02001590              0.01      7.52      0  01:59       0.000     0.000
  YS02001600              0.01      2.13      0  01:59       0.000     0.000
  YS02001601              0.83   1745.47      0  02:14       1.987     0.000
  YS02001602              0.72     62.05      0  02:32       0.150     0.000
  YS02001605              0.01      0.34      0  02:12       0.000     0.000
  YS02001607              0.01      0.29      0  02:44       0.000     0.000
  YS02001610              0.65    951.24      0  02:17       1.095     0.000
  YS02001613              0.01      0.24      0  02:44       0.000     0.000
  YS02001616              0.05      4.91      0  02:12       0.000     0.000
  YS02001619              0.11    193.13      0  02:14       0.043     0.000
  YS02001622              0.01      0.49      0  02:12       0.000     0.000
  YS02001625              0.62   1504.59      0  02:17       1.861     0.000
  YS02001629              0.23    261.45      0  02:14       0.085     0.000
  YS02001633              0.01      1.97      0  02:12       0.000     0.000
  YS02001644              0.33   2178.49      0  02:13       1.153     0.000
  YS02001759              0.01      1.63      0  02:12       0.000     0.000
  YS02001767              0.01      0.67      0  02:12       0.000     0.000
  YS02001770              0.08    351.71      0  02:13       0.061     0.000
  YS02001779              0.29    851.04      0  02:15       0.488     0.000
  YS02001882              0.01      0.09      0  02:12       0.000     0.000
  YS02001884              0.01      1.02      0  02:12       0.000     0.000
  YS02001887              0.01      0.84      0  02:12       0.000     0.000
  YS02001890              0.25    617.72      0  02:13       0.235     0.000
  YS02001907              0.44   2833.92      0  02:13       2.119     0.000
  YS02001915              0.01      1.73      0  02:12       0.000     0.000
  YS02001918              0.01     75.11      0  02:04       0.000     0.000
  YS02001929              0.01    182.56      0  02:04       0.000     0.000
  YS02006558              0.01      0.70      0  02:12       0.000     0.000
  YS02163301              0.01      0.78      0  02:12       0.000     0.000
  YS02163601              0.01      0.19      0  02:12       0.000     0.000
  
  
  **********************
  Storage Volume Summary
  **********************
  
  ------------------------------------------------------------------------------------------------
                         Average    Avg   Evap  Exfil     Maximum    Max    Time of Max    Maximum
                          Volume   Pcnt   Pcnt   Pcnt      Volume   Pcnt     Occurrence    Outflow
  Storage Unit           1000 m³   Full   Loss   Loss     1000 m³   Full    days hr:min        LPS
  ------------------------------------------------------------------------------------------------
  CC-storage               2.492   38.9    0.0    0.0       5.217   81.4       0  02:39    1783.53
  JK-storage               0.162   55.6    0.0    0.0       0.212   72.9       0  02:05    2300.00
  
  
  ***********************
  Outfall Loading Summary
  ***********************
  
  -----------------------------------------------------------
                         Flow       Avg       Max       Total
                         Freq      Flow      Flow      Volume
  Outfall Node           Pcnt       LPS       LPS    10^6 ltr
  -----------------------------------------------------------
  CC-1                  18.40    683.00    683.00       3.932
  CC-2                  16.62    683.00    683.00       3.509
  JK-1                   7.72   1000.00   1000.00       2.039
  JK-2                   3.95   1000.00   1000.00       1.191
  WSC                   99.96    278.61    553.47       6.134
  -----------------------------------------------------------
  System                29.33   3644.61   3899.41      16.805
  
  
  ********************
  Link Flow Summary
  ********************
  
  -----------------------------------------------------------------------------
                                 Maximum  Time of Max   Maximum    Max/    Max/
                                  |Flow|   Occurrence   |Veloc|    Full    Full
  Link                 Type          LPS  days hr:min     m/sec    Flow   Depth
  -----------------------------------------------------------------------------
  1                    CONDUIT    553.47     0  02:49      2.82    0.19    0.30
  WS02003060WS02003069 CONDUIT    551.47     0  02:48      1.64    0.22    0.34
  WS02003066WSF200     CONDUIT    534.92     0  02:47      2.85    0.09    0.22
  WS02003067WS02003066 CONDUIT    534.91     0  02:48      1.20    0.17    0.42
  WS02003069WS02003072 CONDUIT    551.74     0  02:48      1.37    0.27    0.39
  WS02003072WS02003073 CONDUIT    551.72     0  02:49      1.43    1.19    0.37
  WS02004401WS02004402 CONDUIT    537.60     0  02:45      0.98    0.65    0.86
  WS02004402WS02004403 CONDUIT    537.38     0  02:45      0.97    0.77    0.88
  WS02004403WS02004404 CONDUIT    536.87     0  02:46      0.92    0.39    0.93
  WS02004404WS02004405 CONDUIT    537.25     0  02:46      1.08    5.26    0.96
  WS02004405WS02004406 CONDUIT    537.52     0  02:46      0.99    1.06    0.96
  WS02004406WS02004407 CONDUIT    536.72     0  02:46      1.04    0.24    0.63
  WS02004407WS02004409 CONDUIT    536.28     0  02:46      1.55    0.19    0.48
  WS02004409WS02004410 CONDUIT    535.70     0  02:46      1.02    0.69    0.67
  WS02004410WS02004411 CONDUIT    535.49     0  02:47      0.95    0.73    0.69
  WS02004411WS02004412 CONDUIT    535.20     0  02:47      0.92    0.76    0.69
  WS02004412WS02004413 CONDUIT    535.17     0  02:47      0.82    0.36    0.78
  WS02004413WS02003067 CONDUIT    534.95     0  02:47      1.11    0.23    0.59
  WS02006109WS02006110 CONDUIT    562.11     0  03:21      1.12    1.08    1.00
  WS02006110WS02006113 CONDUIT    579.92     0  02:03      1.41    0.53    0.78
  WS02006111WS02006112 CONDUIT    542.17     0  03:08      1.81    0.26    0.67
  WS02006112WS02006115 CONDUIT    547.64     0  03:00      0.83    0.32    0.87
  WS02006113WS02006111 CONDUIT    561.27     0  03:07      2.47    0.67    0.46
  WS02006115WS02006116 CONDUIT    539.90     0  02:38      0.97    0.69    0.76
  WS02006116WS02004401 CONDUIT    537.89     0  02:45      0.98    0.74    0.84
  WS02006228WS02006109 CONDUIT    558.83     0  03:21      1.11    2.44    1.00
  WS02006229WS02006228 CONDUIT    555.44     0  03:21      1.14    1.84    1.00
  WS02006230WS02006229 CONDUIT    554.77     0  03:21      1.44   12.35    1.00
  WS02006231WS02006230 CONDUIT    577.07     0  02:36      1.58    8.75    1.00
  WS02006232WS02006231 CONDUIT    610.49     0  02:02      1.66    1.28    1.00
  WS02006234WS02006232 CONDUIT    602.42     0  02:02      1.57    1.22    1.00
  WS02006235WS02006234 CONDUIT    577.03     0  02:02      1.50    6.09    1.00
  WS02006238WS02006235 CONDUIT    429.79     0  05:05      1.47    0.96    1.00
  WS02006239WS02006238 CONDUIT    429.24     0  05:05      1.12    1.37    1.00
  WS02006240WS02006239 CONDUIT    429.70     0  05:05      1.24    1.35    1.00
  WS02006242WS02006240 CONDUIT    428.05     0  05:05      1.13    1.70    1.00
  WS02006243WS02006242 CONDUIT    427.27     0  05:05      1.40    0.91    1.00
  WS02006245WS02006243 CONDUIT    426.30     0  05:05      1.45    1.26    1.00
  WS02006247WS02006245 CONDUIT    425.45     0  05:05      1.43    3.37    1.00
  WS02006248WS02006247 CONDUIT    426.20     0  05:05      1.44    0.93    1.00
  WS02006249WS02006248 CONDUIT    426.75     0  05:05      1.36    2.34    1.00
  WS02006251WS02006249 CONDUIT    459.02     0  00:00      1.99    1.32    1.00
  WS02006252WS02006251 CONDUIT    404.51     0  02:17     24.61    1.48    1.00
  WS02006256WS02006235 CONDUIT    288.91     0  00:00      4.23    3.06    1.00
  WSF200WS02003060     CONDUIT    535.06     0  02:47      2.06    0.12    0.28
  YS02001580YS02001583 CONDUIT     77.14     0  01:59      0.56    0.30    1.00
  YS02001583YS02001586 CONDUIT    129.56     0  01:58      0.54    0.20    1.00
  YS02001586YS02001590 CONDUIT    318.30     0  02:12      1.25    0.56    1.00
  YS02001590YS02001593 CONDUIT    318.14     0  02:32      1.13    2.00    1.00
  YS02001593YS02001596 CONDUIT    318.11     0  02:30      1.72    0.50    1.00
  YS02001596YS02001600 CONDUIT    318.27     0  02:12      1.27    0.62    1.00
  YS02001600YS02001601 CONDUIT    318.15     0  02:12      1.13    0.55    1.00
  YS02001601YS02001602 CONDUIT    501.38     0  01:58      1.77    1.81    1.00
  YS02001602YS02001605 CONDUIT    501.79     0  01:58      1.77   10.62    1.00
  YS02001605YS02001607 CONDUIT    501.16     0  01:58      1.77    2.75    1.00
  YS02001607YS02001610 CONDUIT    498.69     0  01:57      0.63    0.47    1.00
  YS02001610YS02001613 CONDUIT    615.19     0  02:17      0.78    0.71    1.00
  YS02001613YS02001616 CONDUIT    615.11     0  02:17      0.78    0.53    1.00
  YS02001616YS02001619 CONDUIT    615.20     0  02:17      0.78    1.07    1.00
  YS02001619YS02001622 CONDUIT   1053.91     0  02:16      1.34    1.55    1.00
  YS02001622YS02001625 CONDUIT   1053.65     0  02:17      1.34    0.56    1.00
  YS02001625YS02001629 CONDUIT    912.85     0  02:02      1.16    0.43    1.00
  YS02001629YS02163301 CONDUIT    915.33     0  02:02      1.17    1.13    1.00
  YS02001633YS02163601 CONDUIT   1307.26     0  02:02      1.66    1.37    1.00
  YS02001641YS02001644 CONDUIT   1303.12     0  02:01      1.66    4.21    1.00
  YS02001644YS02001647 CONDUIT   1662.69     0  02:02      2.16    0.98    1.00
  YS02001647YS02001649 CONDUIT   1671.62     0  02:02      2.29    0.88    1.00
  YS02001649YS02001757 CONDUIT   1795.94     0  02:01      2.37    1.09    1.00
  YS02001652YS02001649 CONDUIT   1218.70     0  02:13      1.55    0.60    1.00
  YS02001655YS02001652 CONDUIT   1217.78     0  02:13      1.55    0.59    1.00
  YS02001658YS02001655 CONDUIT   1217.53     0  02:13      1.84    0.52    1.00
  YS02001661YS02001658 CONDUIT   1218.04     0  02:13      2.20    0.48    1.00
  YS02001664YS02001661 CONDUIT   1216.58     0  02:13      2.12    0.38    0.90
  YS02001745YS02001748 CONDUIT    768.35     0  02:13      2.04    0.30    0.99
  YS02001748YS02001751 CONDUIT    769.34     0  02:13      1.61    0.39    1.00
  YS02001751YS02001754 CONDUIT    770.19     0  02:13      1.41    0.37    1.00
  YS02001754YS02001757 CONDUIT    771.37     0  02:13      0.98    0.31    1.00
  YS02001757CaochengTiaoxuchi CONDUIT   3086.61     0  02:12      3.93    1.34    1.00
  YS02001759YS02001757 CONDUIT   1349.62     0  02:13      1.72    0.96    1.00
  YS02001762YS02001759 CONDUIT    702.38     0  02:07      0.89    0.81    1.00
  YS02001765YS02001762 CONDUIT    697.70     0  02:07      0.89    0.65    1.00
  YS02001767YS02001765 CONDUIT    699.14     0  02:07      0.89    0.88    1.00
  YS02001770YS02001767 CONDUIT    700.02     0  02:07      0.89    2.77    1.00
  YS02001774YS02001770 CONDUIT    851.51     0  02:15      1.08    0.54    1.00
  YS02001779YS02001774 CONDUIT    851.28     0  02:15      1.08    0.43    1.00
  YS02001783YS02001784 CONDUIT   1178.03     0  02:12      2.34    1.62    1.00
  YS02001784YS02001785 CONDUIT   1181.94     0  02:12      2.35    2.75    1.00
  YS02001786YS02001788 CONDUIT   1182.99     0  02:12      2.50    2.28    0.89
  YS02001788YS02001790 CONDUIT   1180.53     0  02:12      2.72    0.87    0.85
  YS02001790YS02001791 CONDUIT   1301.61     0  02:12      3.44    1.42    0.71
  YS02001791YS02001793 CONDUIT   1259.82     0  02:12      6.82    0.54    0.44
  YS02001793JiankangQianchi CONDUIT   1261.12     0  02:12      2.53    0.10    0.65
  YS02001882YS02001884 CONDUIT     36.54     0  02:01      0.14    0.04    1.00
  YS02001884YS02001887 CONDUIT     48.66     0  02:00      0.10    0.06    1.00
  YS02001887YS02001890 CONDUIT   1135.25     0  02:13      1.45    1.94    1.00
  YS02001890YS02001895 CONDUIT    519.71     0  02:12      0.66    0.24    1.00
  YS02001895YS02001898 CONDUIT    519.27     0  02:12      0.66    0.90    1.00
  YS02001898YS02001901 CONDUIT    518.67     0  02:13      0.66    0.33    1.00
  YS02001901YS02001904 CONDUIT    521.47     0  02:12      0.66    0.81    1.00
  YS02001904YS02001907 CONDUIT    531.07     0  02:12      0.68    0.19    1.00
  YS02001907YS02006553 CONDUIT    803.13     0  02:31      0.89    0.94    1.00
  YS02001910YS02001907 CONDUIT   1974.15     0  02:14      2.51    1.11    1.00
  YS02001915YS02001910 CONDUIT   1974.16     0  02:14      2.51    0.98    1.00
  YS02001918YS02001915 CONDUIT    651.66     0  02:13      0.83    0.36    1.00
  YS02001920YS02001918 CONDUIT    651.58     0  02:13      0.83    0.63    1.00
  YS02001923YS02001920 CONDUIT    648.18     0  02:14      0.83    0.29    1.00
  YS02001926YS02001923 CONDUIT    647.72     0  02:13      0.95    0.92    1.00
  YS02001929YS02001926 CONDUIT    647.49     0  02:14      1.09    0.31    1.00
  YS02006553YS02006556 CONDUIT    802.17     0  02:31      1.02    0.69    1.00
  YS02006556YS02006558 CONDUIT    803.61     0  02:31      1.02    0.63    1.00
  YS02006558YS02006561 CONDUIT   1176.87     0  02:12      4.16    2.60    1.00
  YS02006561YS02001783 CONDUIT   1182.10     0  02:12      2.35    0.61    1.00
  YS02163301YS02001633 CONDUIT    913.76     0  02:02      1.16    0.86    1.00
  YS02163601YS02164001 CONDUIT   1305.94     0  02:02      1.66    1.16    1.00
  YS02164001YS02001641 CONDUIT   1302.75     0  02:02      1.66    1.78    1.00
  CC-R1                PUMP       683.00     0  00:00              1.00
  CC-R2                PUMP       683.00     0  00:00              1.00
  CC-S1                PUMP       200.00     0  00:00              1.00
  CC-S2                PUMP       200.00     0  00:00              1.00
  JK-R1                PUMP      1000.00     0  00:00              1.00
  JK-R2                PUMP      1000.00     0  00:00              1.00
  JK-S                 PUMP       300.00     0  00:00              1.00
  
  
  ***************************
  Flow Classification Summary
  ***************************
  
  -------------------------------------------------------------------------------------
                      Adjusted    ---------- Fraction of Time in Flow Class ---------- 
                       /Actual         Up    Down  Sub   Sup   Up    Down  Norm  Inlet 
  Conduit               Length    Dry  Dry   Dry   Crit  Crit  Crit  Crit  Ltd   Ctrl  
  -------------------------------------------------------------------------------------
  1                       1.00   0.00  0.00  0.00  0.00  1.00  0.00  0.00  0.46  0.00
  WS02003060WS02003069    1.00   0.00  0.00  0.00  0.98  0.02  0.00  0.00  0.66  0.00
  WS02003066WSF200        1.00   0.13  0.00  0.00  0.00  0.87  0.00  0.00  0.77  0.00
  WS02003067WS02003066    1.00   0.10  0.02  0.00  0.88  0.00  0.00  0.00  0.00  0.00
  WS02003069WS02003072    1.00   0.00  0.00  0.00  0.99  0.01  0.00  0.00  0.70  0.00
  WS02003072WS02003073    1.00   0.00  0.00  0.00  0.00  0.00  0.00  1.00  0.00  0.00
  WS02004401WS02004402    1.00   0.02  0.00  0.00  0.98  0.00  0.00  0.00  0.00  0.00
  WS02004402WS02004403    1.00   0.02  0.00  0.00  0.97  0.00  0.00  0.00  0.00  0.00
  WS02004403WS02004404    1.00   0.00  0.03  0.00  0.97  0.00  0.00  0.00  0.00  0.00
  WS02004404WS02004405    1.00   0.00  0.00  0.00  1.00  0.00  0.00  0.00  0.01  0.00
  WS02004405WS02004406    1.00   0.00  0.00  0.00  1.00  0.00  0.00  0.00  0.00  0.00
  WS02004406WS02004407    1.00   0.00  0.05  0.00  0.95  0.00  0.00  0.00  0.00  0.00
  WS02004407WS02004409    1.00   0.05  0.00  0.00  0.94  0.01  0.00  0.00  0.94  0.00
  WS02004409WS02004410    1.00   0.05  0.00  0.00  0.95  0.00  0.00  0.00  0.03  0.00
  WS02004410WS02004411    1.00   0.05  0.00  0.00  0.95  0.00  0.00  0.00  0.01  0.00
  WS02004411WS02004412    1.00   0.05  0.00  0.00  0.95  0.00  0.00  0.00  0.00  0.00
  WS02004412WS02004413    1.00   0.05  0.00  0.00  0.94  0.00  0.00  0.00  0.01  0.00
  WS02004413WS02003067    1.00   0.06  0.04  0.00  0.00  0.00  0.90  0.00  0.00  0.00
  WS02006109WS02006110    1.00   0.00  0.01  0.00  0.98  0.00  0.01  0.00  0.00  0.00
  WS02006110WS02006113    1.00   0.01  0.01  0.00  0.98  0.00  0.00  0.00  0.00  0.00
  WS02006111WS02006112    1.00   0.02  0.00  0.00  0.98  0.00  0.00  0.00  0.98  0.00
  WS02006112WS02006115    1.00   0.02  0.00  0.00  0.97  0.00  0.00  0.00  0.00  0.00
  WS02006113WS02006111    1.00   0.02  0.00  0.00  0.00  0.98  0.00  0.00  0.16  0.00
  WS02006115WS02006116    1.00   0.02  0.00  0.00  0.97  0.00  0.00  0.01  0.00  0.00
  WS02006116WS02004401    1.00   0.02  0.00  0.00  0.98  0.00  0.00  0.00  0.00  0.00
  WS02006228WS02006109    1.00   0.00  0.00  0.00  1.00  0.00  0.00  0.00  0.00  0.00
  WS02006229WS02006228    1.00   0.00  0.00  0.00  0.99  0.00  0.00  0.01  0.00  0.00
  WS02006230WS02006229    1.00   0.00  0.00  0.00  0.99  0.00  0.00  0.01  0.00  0.00
  WS02006231WS02006230    1.00   0.00  0.00  0.00  0.30  0.00  0.70  0.00  0.00  0.00
  WS02006232WS02006231    1.00   0.00  0.00  0.00  0.99  0.00  0.01  0.00  0.00  0.00
  WS02006234WS02006232    1.00   0.00  0.00  0.00  1.00  0.00  0.00  0.00  0.16  0.00
  WS02006235WS02006234    1.00   0.00  0.00  0.00  0.78  0.00  0.22  0.00  0.00  0.00
  WS02006238WS02006235    1.00   0.00  0.00  0.00  1.00  0.00  0.00  0.00  0.00  0.00
  WS02006239WS02006238    1.00   0.00  0.00  0.00  1.00  0.00  0.00  0.00  0.29  0.00
  WS02006240WS02006239    1.00   0.00  0.00  0.00  0.67  0.00  0.00  0.33  0.02  0.00
  WS02006242WS02006240    1.00   0.00  0.00  0.00  1.00  0.00  0.00  0.00  0.00  0.00
  WS02006243WS02006242    1.00   0.00  0.00  0.00  0.99  0.00  0.00  0.00  0.44  0.00
  WS02006245WS02006243    1.00   0.00  0.00  0.00  0.72  0.00  0.00  0.28  0.01  0.00
  WS02006247WS02006245    1.00   0.00  0.00  0.00  0.99  0.00  0.00  0.01  0.00  0.00
  WS02006248WS02006247    1.00   0.00  0.00  0.00  0.99  0.00  0.00  0.01  0.20  0.00
  WS02006249WS02006248    1.00   0.00  0.00  0.00  0.55  0.00  0.45  0.00  0.00  0.00
  WS02006251WS02006249    1.00   0.00  0.00  0.00  1.00  0.00  0.00  0.00  0.47  0.00
  WS02006252WS02006251    1.00   0.00  0.48  0.00  0.11  0.00  0.41  0.00  0.00  0.00
  WS02006256WS02006235    1.00   0.00  0.00  0.00  0.99  0.01  0.00  0.00  0.00  0.00
  WSF200WS02003060        1.00   0.00  0.13  0.00  0.26  0.62  0.00  0.00  0.38  0.00
  YS02001580YS02001583    1.00   0.24  0.54  0.00  0.21  0.00  0.00  0.00  0.63  0.00
  YS02001583YS02001586    1.00   0.41  0.32  0.00  0.27  0.00  0.00  0.00  0.64  0.00
  YS02001586YS02001590    1.00   0.13  0.00  0.00  0.45  0.04  0.00  0.38  0.36  0.00
  YS02001590YS02001593    1.00   0.13  0.01  0.00  0.14  0.00  0.73  0.00  0.00  0.00
  YS02001593YS02001596    1.00   0.13  0.00  0.00  0.16  0.01  0.00  0.70  0.02  0.00
  YS02001596YS02001600    1.00   0.13  0.00  0.00  0.21  0.01  0.00  0.64  0.04  0.00
  YS02001600YS02001601    1.00   0.13  0.01  0.00  0.86  0.00  0.00  0.00  0.59  0.00
  YS02001601YS02001602    1.00   0.13  0.01  0.00  0.87  0.00  0.00  0.00  0.00  0.00
  YS02001602YS02001605    1.00   0.13  0.00  0.00  0.87  0.00  0.00  0.00  0.00  0.00
  YS02001605YS02001607    1.00   0.14  0.00  0.00  0.86  0.00  0.00  0.00  0.00  0.00
  YS02001607YS02001610    1.00   0.13  0.01  0.00  0.86  0.00  0.00  0.00  0.01  0.00
  YS02001610YS02001613    1.00   0.13  0.00  0.00  0.87  0.00  0.00  0.00  0.00  0.00
  YS02001613YS02001616    1.00   0.13  0.00  0.00  0.87  0.00  0.00  0.00  0.00  0.00
  YS02001616YS02001619    1.00   0.13  0.00  0.00  0.87  0.00  0.00  0.00  0.00  0.00
  YS02001619YS02001622    1.00   0.13  0.00  0.00  0.87  0.00  0.00  0.00  0.28  0.00
  YS02001622YS02001625    1.00   0.13  0.00  0.00  0.87  0.00  0.00  0.00  0.04  0.00
  YS02001625YS02001629    1.00   0.13  0.04  0.00  0.19  0.00  0.64  0.00  0.00  0.00
  YS02001629YS02163301    1.00   0.15  0.01  0.00  0.84  0.00  0.00  0.00  0.00  0.00
  YS02001633YS02163601    1.00   0.00  0.01  0.00  0.99  0.00  0.00  0.00  0.15  0.00
  YS02001641YS02001644    1.00   0.00  0.01  0.00  0.99  0.00  0.00  0.00  0.00  0.00
  YS02001644YS02001647    1.00   0.00  0.17  0.00  0.83  0.00  0.00  0.00  0.00  0.00
  YS02001647YS02001649    1.00   0.00  0.17  0.00  0.55  0.28  0.00  0.00  0.55  0.00
  YS02001649YS02001757    1.00   0.00  0.00  0.00  0.85  0.15  0.00  0.00  0.41  0.00
  YS02001652YS02001649    1.00   0.00  0.00  0.00  0.97  0.03  0.00  0.00  0.72  0.00
  YS02001655YS02001652    1.00   0.00  0.00  0.00  0.21  0.01  0.00  0.78  0.04  0.00
  YS02001658YS02001655    1.00   0.00  0.14  0.00  0.69  0.17  0.00  0.00  0.66  0.00
  YS02001661YS02001658    1.00   0.14  0.00  0.00  0.53  0.33  0.00  0.00  0.67  0.00
  YS02001664YS02001661    1.00   0.13  0.00  0.00  0.79  0.08  0.00  0.00  0.84  0.00
  YS02001745YS02001748    1.00   0.00  0.00  0.00  0.13  0.00  0.00  0.86  0.04  0.00
  YS02001748YS02001751    1.00   0.00  0.00  0.00  0.85  0.15  0.00  0.00  0.73  0.00
  YS02001751YS02001754    1.00   0.00  0.00  0.00  0.19  0.00  0.00  0.81  0.02  0.00
  YS02001754YS02001757    1.00   0.00  0.00  0.00  1.00  0.00  0.00  0.00  0.79  0.00
  YS02001757CaochengTiaoxuchi    1.00   0.00  0.00  0.00  1.00  0.00  0.00  0.00  0.63  0.00
  YS02001759YS02001757    1.00   0.00  0.00  0.00  0.99  0.01  0.00  0.00  0.51  0.00
  YS02001762YS02001759    1.00   0.00  0.00  0.00  1.00  0.00  0.00  0.00  0.06  0.00
  YS02001765YS02001762    1.00   0.00  0.00  0.00  1.00  0.00  0.00  0.00  0.65  0.00
  YS02001767YS02001765    1.00   0.00  0.00  0.00  1.00  0.00  0.00  0.00  0.01  0.00
  YS02001770YS02001767    1.00   0.00  0.00  0.00  1.00  0.00  0.00  0.00  0.00  0.00
  YS02001774YS02001770    1.00   0.00  0.13  0.00  0.70  0.00  0.16  0.00  0.03  0.00
  YS02001779YS02001774    1.00   0.00  0.00  0.00  1.00  0.00  0.00  0.00  0.74  0.00
  YS02001783YS02001784    1.00   0.00  0.18  0.00  0.82  0.00  0.00  0.00  0.55  0.00
  YS02001784YS02001785    1.00   0.00  0.00  0.00  1.00  0.00  0.00  0.00  0.16  0.00
  YS02001786YS02001788    1.00   0.00  0.00  0.00  0.80  0.20  0.00  0.00  0.00  0.00
  YS02001788YS02001790    1.00   0.00  0.00  0.00  0.22  0.78  0.00  0.00  0.79  0.00
  YS02001790YS02001791    1.00   0.00  0.00  0.00  0.01  0.99  0.00  0.00  0.16  0.00
  YS02001791YS02001793    1.00   0.00  0.00  0.00  0.00  1.00  0.00  0.00  0.01  0.00
  YS02001793JiankangQianchi    1.00   0.00  0.00  0.00  0.97  0.03  0.00  0.00  0.95  0.00
  YS02001882YS02001884    1.00   0.15  0.01  0.00  0.84  0.00  0.00  0.00  0.00  0.00
  YS02001884YS02001887    1.00   0.06  0.05  0.00  0.89  0.00  0.00  0.00  0.00  0.00
  YS02001887YS02001890    1.00   0.00  0.00  0.00  0.97  0.00  0.03  0.00  0.00  0.00
  YS02001890YS02001895    1.00   0.00  0.16  0.00  0.84  0.00  0.00  0.00  0.00  0.00
  YS02001895YS02001898    1.00   0.16  0.00  0.00  0.82  0.00  0.02  0.00  0.00  0.00
  YS02001898YS02001901    1.00   0.16  0.00  0.00  0.84  0.00  0.00  0.00  0.01  0.00
  YS02001901YS02001904    1.00   0.16  0.00  0.00  0.84  0.00  0.00  0.00  0.00  0.00
  YS02001904YS02001907    1.00   0.00  0.16  0.00  0.84  0.00  0.00  0.00  0.00  0.00
  YS02001907YS02006553    1.00   0.00  0.02  0.00  0.98  0.00  0.00  0.00  0.00  0.00
  YS02001910YS02001907    1.00   0.00  0.00  0.00  0.97  0.00  0.00  0.03  0.12  0.00
  YS02001915YS02001910    1.00   0.00  0.00  0.00  0.97  0.03  0.00  0.00  0.15  0.00
  YS02001918YS02001915    1.00   0.00  0.01  0.00  0.98  0.02  0.00  0.00  0.73  0.00
  YS02001920YS02001918    1.00   0.00  0.01  0.00  0.99  0.00  0.00  0.00  0.00  0.00
  YS02001923YS02001920    1.00   0.00  0.00  0.00  1.00  0.00  0.00  0.00  0.91  0.00
  YS02001926YS02001923    1.00   0.00  0.07  0.00  0.07  0.00  0.85  0.00  0.00  0.00
  YS02001929YS02001926    1.00   0.00  0.13  0.00  0.87  0.00  0.00  0.00  0.81  0.00
  YS02006553YS02006556    1.00   0.01  0.00  0.00  0.99  0.00  0.00  0.00  0.03  0.00
  YS02006556YS02006558    1.00   0.00  0.00  0.00  1.00  0.00  0.00  0.00  0.00  0.00
  YS02006558YS02006561    1.00   0.17  0.00  0.00  0.07  0.76  0.00  0.00  0.18  0.00
  YS02006561YS02001783    1.00   0.17  0.00  0.00  0.11  0.72  0.00  0.00  0.67  0.00
  YS02163301YS02001633    1.00   0.00  0.15  0.00  0.85  0.00  0.00  0.00  0.00  0.00
  YS02163601YS02164001    1.00   0.00  0.08  0.00  0.92  0.00  0.00  0.00  0.00  0.00
  YS02164001YS02001641    1.00   0.01  0.07  0.00  0.92  0.00  0.00  0.00  0.05  0.00
  
  
  *************************
  Conduit Surcharge Summary
  *************************
  
  ----------------------------------------------------------------------------
                                                           Hours        Hours 
                         --------- Hours Full --------   Above Full   Capacity
  Conduit                Both Ends  Upstream  Dnstream   Normal Flow   Limited
  ----------------------------------------------------------------------------
  WS02003072WS02003073        0.01      0.01      0.01      1.16         0.01
  WS02004404WS02004405        0.01      0.01      0.01      4.21         0.01
  WS02004405WS02004406        0.01      0.01      0.01      0.63         0.01
  WS02006109WS02006110        0.66      0.66      2.20      0.78         0.01
  WS02006110WS02006113        0.01      0.01      2.16      0.01         0.01
  WS02006111WS02006112        0.01      0.01      2.64      0.01         0.01
  WS02006112WS02006115        0.01      0.01      0.72      0.01         0.01
  WS02006228WS02006109        2.12      2.20      2.12      2.92         2.12
  WS02006229WS02006228        2.11      2.13      2.11      2.51         2.10
  WS02006230WS02006229        2.33      2.46      2.33      4.78         2.33
  WS02006231WS02006230        0.70      0.70      0.85      4.54         0.01
  WS02006232WS02006231        0.80      0.80      2.20      0.87         0.01
  WS02006234WS02006232        2.05      2.05      2.20      0.86         0.85
  WS02006235WS02006234        1.12      1.13      2.07      4.36         0.02
  WS02006238WS02006235        2.09      2.09      2.20      0.01         0.01
  WS02006239WS02006238        2.12      2.18      2.13      2.37         1.93
  WS02006240WS02006239        2.09      2.12      2.09      2.36         1.80
  WS02006242WS02006240        2.11      2.11      2.28      2.58         0.01
  WS02006243WS02006242        2.14      2.14      2.23      0.01         0.04
  WS02006245WS02006243        2.11      2.13      2.12      1.61         1.48
  WS02006247WS02006245        2.11      2.16      2.11      4.11         2.09
  WS02006248WS02006247        2.11      2.11      2.14      0.01         0.05
  WS02006249WS02006248        2.09      2.10      2.12      4.09         0.01
  WS02006251WS02006249        2.11      2.12      2.12      2.41         2.04
  WS02006252WS02006251        2.46      2.46      2.47      2.47         0.01
  WS02006256WS02006235        4.38      4.43      5.59      1.18         0.01
  YS02001580YS02001583        0.76      0.76      0.82      0.01         0.01
  YS02001583YS02001586        0.77      0.77      0.90      0.01         0.01
  YS02001586YS02001590        0.91      0.91      0.98      0.01         0.01
  YS02001590YS02001593        0.99      0.99      1.01      1.02         0.01
  YS02001593YS02001596        1.00      1.00      1.11      0.01         0.01
  YS02001596YS02001600        1.17      1.17      1.26      0.01         0.01
  YS02001600YS02001601        1.31      1.31      1.57      0.01         0.01
  YS02001601YS02001602        1.47      1.47      1.60      1.25         0.01
  YS02001602YS02001605        1.42      1.42      1.47      2.40         0.01
  YS02001605YS02001607        1.38      1.42      1.39      1.50         1.37
  YS02001607YS02001610        0.99      0.99      1.02      0.01         0.01
  YS02001610YS02001613        0.99      0.99      1.02      0.01         0.01
  YS02001613YS02001616        0.94      0.94      0.99      0.01         0.01
  YS02001616YS02001619        0.93      0.93      0.94      0.09         0.08
  YS02001619YS02001622        0.93      0.93      0.93      0.95         0.86
  YS02001622YS02001625        0.93      0.93      1.12      0.01         0.01
  YS02001625YS02001629        0.88      0.88      1.12      0.01         0.01
  YS02001629YS02163301        1.12      1.12      1.13      0.07         0.13
  YS02001633YS02163601        1.15      1.15      1.19      0.24         0.24
  YS02001641YS02001644        1.08      1.10      1.08      1.64         1.06
  YS02001644YS02001647        0.86      0.86      1.08      0.01         0.01
  YS02001647YS02001649        0.86      0.86      1.00      0.01         0.01
  YS02001649YS02001757        1.00      1.00      1.07      0.08         0.04
  YS02001652YS02001649        0.83      0.83      1.00      0.01         0.01
  YS02001655YS02001652        0.63      0.63      0.81      0.01         0.01
  YS02001658YS02001655        0.37      0.37      0.63      0.01         0.01
  YS02001661YS02001658        0.13      0.13      0.37      0.01         0.01
  YS02001664YS02001661        0.01      0.01      0.18      0.01         0.01
  YS02001745YS02001748        0.01      0.01      0.30      0.01         0.01
  YS02001748YS02001751        0.34      0.34      0.50      0.01         0.01
  YS02001751YS02001754        0.50      0.50      0.73      0.01         0.01
  YS02001754YS02001757        0.77      0.77      1.07      0.01         0.01
  YS02001757CaochengTiaoxuchi        1.07      1.07      1.99      0.40         0.40
  YS02001759YS02001757        0.99      0.99      1.07      0.01         0.01
  YS02001762YS02001759        0.96      0.96      0.99      0.01         0.02
  YS02001765YS02001762        0.91      0.91      0.96      0.01         0.01
  YS02001767YS02001765        0.88      0.88      0.91      0.01         0.02
  YS02001770YS02001767        0.87      0.87      0.88      0.63         0.53
  YS02001774YS02001770        0.85      0.85      0.94      0.01         0.01
  YS02001779YS02001774        0.71      0.71      0.94      0.01         0.01
  YS02001783YS02001784        0.62      0.65      0.62      0.82         0.62
  YS02001784YS02001785        0.51      0.62      0.51      1.08         0.51
  YS02001786YS02001788        0.01      0.51      0.01      0.94         0.01
  YS02001790YS02001791        0.01      0.01      0.01      0.61         0.01
  YS02001793JiankangQianchi        0.01      0.01      7.54      0.01         0.01
  YS02001882YS02001884        0.59      0.59      0.60      0.01         0.01
  YS02001884YS02001887        0.63      0.63      0.64      0.01         0.01
  YS02001887YS02001890        0.65      0.65      0.66      0.19         0.01
  YS02001890YS02001895        0.58      0.58      0.68      0.01         0.01
  YS02001895YS02001898        0.57      0.57      0.58      0.01         0.01
  YS02001898YS02001901        0.58      0.58      0.62      0.01         0.01
  YS02001901YS02001904        0.61      0.61      0.62      0.01         0.01
  YS02001904YS02001907        0.61      0.61      0.91      0.01         0.01
  YS02001907YS02006553        1.09      1.09      1.16      0.01         0.01
  YS02001910YS02001907        0.68      0.68      0.90      0.07         0.07
  YS02001915YS02001910        0.59      0.59      0.68      0.01         0.01
  YS02001918YS02001915        0.49      0.49      0.59      0.01         0.01
  YS02001920YS02001918        0.49      0.49      0.51      0.01         0.01
  YS02001923YS02001920        0.45      0.45      0.51      0.01         0.01
  YS02001926YS02001923        0.20      0.20      0.24      0.01         0.01
  YS02001929YS02001926        0.09      0.09      0.24      0.01         0.01
  YS02006553YS02006556        0.79      0.79      0.91      0.01         0.01
  YS02006556YS02006558        0.85      0.85      0.93      0.01         0.01
  YS02006558YS02006561        0.53      0.77      0.53      1.03         0.53
  YS02006561YS02001783        0.46      0.46      0.65      0.01         0.01
  YS02163301YS02001633        1.13      1.13      1.17      0.01         0.01
  YS02163601YS02164001        1.11      1.11      1.19      0.08         0.01
  YS02164001YS02001641        1.10      1.11      1.10      0.68         0.63
  
  
  ***************
  Pumping Summary
  ***************
  
  ---------------------------------------------------------------------------------------------------------
                                                  Min       Avg       Max     Total     Power    % Time Off
                        Percent   Number of      Flow      Flow      Flow    Volume     Usage    Pump Curve
  Pump                 Utilized   Start-Ups       LPS       LPS       LPS  10^6 ltr     Kw-hr    Low   High
  ---------------------------------------------------------------------------------------------------------
  CC-R1                   19.99           3      0.00    683.00    683.00     3.933     75.27    0.0    9.5
  CC-R2                   17.84           3      0.00    683.00    683.00     3.510     67.51    0.0   10.6
  CC-S1                   48.03           8      0.00    200.00    200.00     2.767     15.90    0.0    0.0
  CC-S2                   34.46          10      0.00    200.00    200.00     1.985     11.21    0.0    0.0
  JK-R1                    7.07          12      0.00   1000.00   1000.00     2.037     23.13    0.0    0.0
  JK-R2                    4.13           6      0.00   1000.00   1000.00     1.190     12.58    0.0    0.0
  JK-S                    14.75          18      0.00    300.00    300.00     1.274     18.34    0.0    0.0
  

  Analysis begun on:  Mon Apr 14 21:00:51 2025
  Analysis ended on:  Mon Apr 14 21:00:53 2025
  Total elapsed time: 00:00:02