
  EPA STORM WATER MANAGEMENT MODEL - VERSION 5.2 (Build 5.2.4)
  PYSWMM TOOLKIT API - VERSION v1.0 (2023-11-27)
  ------------------------------------------------------------

  WARNING 04: minimum elevation drop used for Conduit WS02004404WS02004405
  WARNING 03: negative offset ignored for Link YS02001904YS02001907
  
  ****************
  Analysis Options
  ****************
  Flow Units ............... LPS
  Process Models:
    Rainfall/Runoff ........ YES
    RDII ................... NO
    Snowmelt ............... NO
    Groundwater ............ NO
    Flow Routing ........... YES
    Ponding Allowed ........ NO
    Water Quality .......... NO
  Infiltration Method ...... HORTON
  Flow Routing Method ...... DYNWAVE
  Surcharge Method ......... EXTRAN
  Starting Date ............ 08/28/2015 08:00:00
  Ending Date .............. 08/28/2015 16:00:00
  Antecedent Dry Days ...... 8.0
  Report Time Step ......... 00:01:00
  Wet Time Step ............ 00:01:00
  Dry Time Step ............ 00:01:00
  Routing Time Step ........ 30.00 sec
  Variable Time Step ....... YES
  Maximum Trials ........... 8
  Number of Threads ........ 4
  Head Tolerance ........... 0.001500 m
  
  
  **************************        Volume         Depth
  Runoff Quantity Continuity     hectare-m            mm
  **************************     ---------       -------
  Total Precipitation ......         3.445       103.865
  Evaporation Loss .........         0.000         0.000
  Infiltration Loss ........         0.104         3.128
  Surface Runoff ...........         3.309        99.769
  Final Storage ............         0.033         0.996
  Continuity Error (%) .....        -0.027
  
  
  **************************        Volume        Volume
  Flow Routing Continuity        hectare-m      10^6 ltr
  **************************     ---------     ---------
  Dry Weather Inflow .......         0.025         0.251
  Wet Weather Inflow .......         3.309        33.092
  Groundwater Inflow .......         0.000         0.000
  RDII Inflow ..............         0.000         0.000
  External Inflow ..........         0.083         0.834
  External Outflow .........         1.992        19.920
  Flooding Loss ............         1.479        14.792
  Evaporation Loss .........         0.000         0.000
  Exfiltration Loss ........         0.000         0.000
  Initial Stored Volume ....         0.243         2.431
  Final Stored Volume ......         0.196         1.956
  Continuity Error (%) .....        -0.165
  
  
  *************************
  Highest Continuity Errors
  *************************
  Node YS02001583 (-7.05%)
  Node YS02001884 (5.21%)
  
  
  ***************************
  Time-Step Critical Elements
  ***************************
  Link WS02006252WS02006251 (50.79%)
  Link WS02006238WS02006235 (10.88%)
  Link WS02004404WS02004405 (10.36%)
  Link YS02001791YS02001793 (7.86%)
  Link WS02006235WS02006234 (7.43%)
  
  
  ********************************
  Highest Flow Instability Indexes
  ********************************
  Link WS02006113WS02006111 (55)
  Link WS02006111WS02006112 (29)
  Link WS02004404WS02004405 (21)
  Link WS02004403WS02004404 (20)
  Link WS02004405WS02004406 (18)
  
  
  *********************************
  Most Frequent Nonconverging Nodes
  *********************************
  Node CC-1 (10.13%)
  Node CC-2 (10.13%)
  Node JK-1 (10.13%)
  Node JK-2 (10.13%)
  Node WSC (10.13%)
  
  
  *************************
  Routing Time Step Summary
  *************************
  Minimum Time Step           :     0.00 sec
  Average Time Step           :     1.71 sec
  Maximum Time Step           :     7.04 sec
  % of Time in Steady State   :     0.00
  Average Iterations per Step :     3.04
  % of Steps Not Converging   :    10.13
  Time Step Frequencies       :
     30.000 - 13.228 sec      :     0.00 %
     13.228 -  5.833 sec      :     5.62 %
      5.833 -  2.572 sec      :    14.55 %
      2.572 -  1.134 sec      :    23.47 %
      1.134 -  0.500 sec      :    56.37 %
  
  
  ***************************
  Subcatchment Runoff Summary
  ***************************
  
  ------------------------------------------------------------------------------------------------------------------------------
                            Total      Total      Total      Total     Imperv       Perv      Total       Total     Peak  Runoff
                           Precip      Runon       Evap      Infil     Runoff     Runoff     Runoff      Runoff   Runoff   Coeff
  Subcatchment                 mm         mm         mm         mm         mm         mm         mm    10^6 ltr      LPS
  ------------------------------------------------------------------------------------------------------------------------------
  sub60                    103.87       0.00       0.00       1.89      90.21      10.58     100.79        1.32   859.68   0.970
  sub61                    103.87       0.00       0.00       2.74      85.09      14.92     100.02        1.84  1191.96   0.963
  sub62                    103.87       0.00       0.00       1.26      94.28       7.05     101.34        2.78  1677.84   0.976
  sub63                    103.87       0.00       0.00       5.03      72.79      25.10      97.88        2.22  1329.16   0.942
  sub64                    103.87       0.00       0.00       2.55      87.09      13.04     100.13        2.41  1359.78   0.964
  sub65                    103.87       0.00       0.00       2.21      89.12      11.30     100.42        2.76  1523.11   0.967
  sub66                    103.87       0.00       0.00       6.18      72.67      23.95      96.62        4.51  1993.77   0.930
  sub67                    103.87       0.00       0.00       1.21      94.33       7.10     101.43        1.89  1301.16   0.977
  sub68                    103.87       0.00       0.00       2.27      88.15      12.28     100.43        2.76  1719.26   0.967
  sub69                    103.87       0.00       0.00       2.04      88.18      13.55     101.73        3.77  2028.83   0.979
  sub70                    103.87       0.00       0.00       6.71      68.39      28.61      97.00        2.80  1117.89   0.934
  sub71                    103.87       0.00       0.00       1.29      94.24       7.02     101.26        2.65  1472.94   0.975
  sub72                    103.87       0.00       0.00       1.15      95.20       6.12     101.33        1.39   711.23   0.976
  
  
  ******************
  Node Depth Summary
  ******************
  
  ---------------------------------------------------------------------------------
                                 Average  Maximum  Maximum  Time of Max    Reported
                                   Depth    Depth      HGL   Occurrence   Max Depth
  Node                 Type       Meters   Meters   Meters  days hr:min      Meters
  ---------------------------------------------------------------------------------
  WS02003060           JUNCTION     0.26     0.38     5.32     0  02:38        0.38
  WS02003066           JUNCTION     0.21     0.30     5.85     0  02:28        0.30
  WS02003067           JUNCTION     0.54     0.70     6.02     0  02:28        0.70
  WS02003069           JUNCTION     0.29     0.43     5.01     0  02:38        0.43
  WS02003072           JUNCTION     0.36     0.50     4.87     0  02:39        0.50
  WS02003073           JUNCTION     0.21     0.30     4.36     0  02:29        0.30
  WS02004401           JUNCTION     0.64     0.88     6.88     0  02:25        0.87
  WS02004402           JUNCTION     0.67     0.90     6.86     0  02:25        0.90
  WS02004403           JUNCTION     0.70     0.92     6.85     0  02:26        0.92
  WS02004404           JUNCTION     0.77     1.04     6.89     0  02:32        1.00
  WS02004405           JUNCTION     0.75     0.97     6.82     0  01:55        0.97
  WS02004406           JUNCTION     0.76     0.96     6.79     0  01:56        0.96
  WS02004407           JUNCTION     0.20     0.30     6.61     0  01:56        0.30
  WS02004409           JUNCTION     0.44     0.67     6.44     0  02:26        0.67
  WS02004410           JUNCTION     0.46     0.68     6.40     0  02:27        0.68
  WS02004411           JUNCTION     0.48     0.69     6.37     0  02:27        0.69
  WS02004412           JUNCTION     0.50     0.70     6.34     0  02:27        0.70
  WS02004413           JUNCTION     0.66     0.86     6.33     0  02:27        0.86
  WS02006109           JUNCTION     0.69     1.28     7.90     0  02:51        1.00
  WS02006110           JUNCTION     0.69     1.55     8.13     0  02:51        1.02
  WS02006111           JUNCTION     0.19     0.29     6.99     0  02:13        0.29
  WS02006112           JUNCTION     0.80     1.10     6.98     0  02:39        1.07
  WS02006113           JUNCTION     0.30     0.46     7.35     0  02:03        0.46
  WS02006115           JUNCTION     0.52     0.77     6.91     0  02:34        0.77
  WS02006116           JUNCTION     0.61     0.85     6.89     0  02:33        0.85
  WS02006228           JUNCTION     0.69     1.45     8.10     0  03:02        1.07
  WS02006229           JUNCTION     0.66     1.51     8.21     0  03:02        1.16
  WS02006230           JUNCTION     0.66     1.90     8.64     0  03:02        1.20
  WS02006231           JUNCTION     0.46     1.43     8.55     0  03:02        1.02
  WS02006232           JUNCTION     0.60     1.58     8.62     0  02:50        1.37
  WS02006234           JUNCTION     0.53     1.57     8.72     0  02:10        1.21
  WS02006235           JUNCTION     0.57     1.61     8.77     0  02:50        1.30
  WS02006238           JUNCTION     0.60     1.64     8.79     0  02:50        1.33
  WS02006239           JUNCTION     0.57     1.59     8.80     0  02:50        1.32
  WS02006240           JUNCTION     0.53     1.52     8.81     0  02:50        1.29
  WS02006242           JUNCTION     0.60     1.55     8.82     0  03:02        1.36
  WS02006243           JUNCTION     0.51     1.45     8.87     0  03:02        1.25
  WS02006245           JUNCTION     0.51     1.37     8.86     0  03:02        1.20
  WS02006247           JUNCTION     0.53     1.31     8.81     0  03:02        1.19
  WS02006248           JUNCTION     0.49     1.10     8.69     0  01:40        1.10
  WS02006249           JUNCTION     0.52     1.09     8.69     0  01:39        1.09
  WS02006251           JUNCTION     0.52     1.48     9.15     0  01:39        1.15
  WS02006252           JUNCTION     0.38     1.50     9.74     0  00:00        0.71
  WS02006256           JUNCTION     1.01     2.35     9.28     0  00:00        2.35
  WSF200               JUNCTION     0.19     0.29     5.52     0  02:28        0.29
  YS02001580           JUNCTION     0.11     1.05     9.59     0  01:31        0.77
  YS02001583           JUNCTION     0.15     1.12     9.61     0  01:31        0.89
  YS02001586           JUNCTION     0.22     1.13     9.30     0  01:31        1.13
  YS02001590           JUNCTION     0.31     1.40     9.26     0  01:31        1.40
  YS02001593           JUNCTION     0.25     1.35     9.21     0  01:31        1.29
  YS02001596           JUNCTION     0.34     1.71     9.13     0  02:14        1.71
  YS02001600           JUNCTION     0.39     1.87     9.00     0  01:31        1.86
  YS02001601           JUNCTION     0.57     2.06     8.90     0  01:30        2.06
  YS02001602           JUNCTION     0.48     1.87     8.77     0  01:31        1.87
  YS02001605           JUNCTION     0.45     1.78     8.68     0  01:31        1.78
  YS02001607           JUNCTION     0.46     1.68     8.53     0  02:14        1.68
  YS02001610           JUNCTION     0.50     1.68     8.48     0  01:31        1.68
  YS02001613           JUNCTION     0.46     1.70     8.54     0  02:36        1.70
  YS02001616           JUNCTION     0.39     1.61     8.52     0  01:34        1.61
  YS02001619           JUNCTION     0.37     1.61     8.54     0  01:34        1.61
  YS02001622           JUNCTION     0.36     1.62     8.52     0  02:36        1.62
  YS02001625           JUNCTION     0.63     1.78     8.38     0  01:31        1.78
  YS02001629           JUNCTION     0.48     1.85     8.40     0  01:31        1.85
  YS02001633           JUNCTION     0.56     2.08     8.53     0  01:33        2.08
  YS02001641           JUNCTION     0.55     2.07     8.51     0  01:34        2.07
  YS02001644           JUNCTION     0.55     1.92     8.35     0  01:33        1.92
  YS02001647           JUNCTION     0.35     1.84     8.45     0  01:33        1.78
  YS02001649           JUNCTION     0.39     2.05     8.44     0  01:35        2.03
  YS02001652           JUNCTION     0.29     2.16     8.76     0  01:34        1.91
  YS02001655           JUNCTION     0.24     2.20     9.05     0  01:34        1.75
  YS02001658           JUNCTION     0.17     2.30     9.44     0  01:34        1.54
  YS02001661           JUNCTION     0.18     2.22     9.62     0  01:35        1.36
  YS02001664           JUNCTION     0.06     1.96     9.89     0  01:35        0.88
  YS02001745           JUNCTION     0.09     2.23     9.75     0  01:35        0.97
  YS02001748           JUNCTION     0.17     2.27     9.35     0  01:34        1.37
  YS02001751           JUNCTION     0.21     2.20     9.08     0  01:34        1.53
  YS02001754           JUNCTION     0.27     2.20     8.81     0  01:34        1.77
  YS02001757           JUNCTION     0.42     2.21     8.47     0  01:35        2.09
  YS02001759           JUNCTION     0.37     2.21     8.57     0  01:35        2.12
  YS02001762           JUNCTION     0.36     2.15     8.55     0  01:34        2.07
  YS02001765           JUNCTION     0.34     2.10     8.55     0  01:33        2.01
  YS02001767           JUNCTION     0.33     2.03     8.52     0  01:33        1.96
  YS02001770           JUNCTION     0.34     1.95     8.44     0  01:33        1.95
  YS02001774           JUNCTION     0.41     2.04     8.46     0  01:33        2.00
  YS02001779           JUNCTION     0.25     1.68     8.37     0  01:34        1.68
  YS02001783           JUNCTION     0.24     1.70     7.84     0  01:33        1.24
  YS02001784           JUNCTION     0.25     1.38     7.45     0  01:33        1.12
  YS02001786           JUNCTION     0.21     1.03     7.06     0  01:33        0.88
  YS02001788           JUNCTION     0.15     0.63     6.61     0  01:36        0.62
  YS02001790           JUNCTION     0.18     0.73     6.38     0  01:36        0.73
  YS02001791           JUNCTION     0.11     0.44     5.91     0  01:37        0.44
  YS02001793           JUNCTION     0.06     0.30     5.13     0  01:36        0.28
  YS02001882           JUNCTION     0.31     1.76     8.48     0  01:33        1.73
  YS02001884           JUNCTION     0.41     1.84     8.45     0  01:33        1.81
  YS02001887           JUNCTION     0.48     1.94     8.48     0  01:34        1.94
  YS02001890           JUNCTION     0.51     1.81     8.32     0  01:33        1.81
  YS02001895           JUNCTION     0.28     1.58     8.33     0  01:33        1.58
  YS02001898           JUNCTION     0.29     1.60     8.33     0  01:33        1.56
  YS02001901           JUNCTION     0.41     1.70     8.30     0  01:33        1.69
  YS02001904           JUNCTION     0.39     1.66     8.29     0  01:33        1.63
  YS02001907           JUNCTION     0.71     1.96     8.25     0  01:33        1.96
  YS02001910           JUNCTION     0.51     2.04     8.55     0  01:34        2.04
  YS02001915           JUNCTION     0.32     2.00     8.72     0  01:34        2.00
  YS02001918           JUNCTION     0.19     1.81     8.88     0  01:34        1.79
  YS02001920           JUNCTION     0.26     2.09     9.10     0  01:34        1.90
  YS02001923           JUNCTION     0.15     2.03     9.29     0  01:34        1.68
  YS02001926           JUNCTION     0.17     1.90     9.35     0  01:34        1.52
  YS02001929           JUNCTION     0.10     1.78     9.47     0  01:34        1.32
  YS02006553           JUNCTION     0.72     2.10     8.38     0  01:33        1.99
  YS02006556           JUNCTION     0.69     2.22     8.53     0  01:33        2.03
  YS02006558           JUNCTION     0.73     2.30     8.57     0  01:33        2.15
  YS02006561           JUNCTION     0.15     1.56     8.22     0  01:33        0.92
  YS02163301           JUNCTION     0.50     1.98     8.49     0  01:34        1.98
  YS02163601           JUNCTION     0.60     2.08     8.48     0  01:33        2.08
  YS02164001           JUNCTION     0.54     2.10     8.56     0  01:34        2.10
  CC-1                 OUTFALL      0.00     0.00     0.00     0  00:00        0.00
  CC-2                 OUTFALL      0.00     0.00     0.00     0  00:00        0.00
  JK-1                 OUTFALL      0.00     0.00     0.00     0  00:00        0.00
  JK-2                 OUTFALL      0.00     0.00     0.00     0  00:00        0.00
  WSC                  OUTFALL      0.21     0.30     0.97     0  02:30        0.30
  CC-storage           STORAGE      0.94     1.90     7.40     0  02:24        1.90
  JK-storage           STORAGE      3.15     4.23     5.03     0  01:40        4.22
  
  
  *******************
  Node Inflow Summary
  *******************
  
  -------------------------------------------------------------------------------------------------
                                  Maximum  Maximum                  Lateral       Total        Flow
                                  Lateral    Total  Time of Max      Inflow      Inflow     Balance
                                   Inflow   Inflow   Occurrence      Volume      Volume       Error
  Node                 Type           LPS      LPS  days hr:min    10^6 ltr    10^6 ltr     Percent
  -------------------------------------------------------------------------------------------------
  WS02003060           JUNCTION     16.53   554.11     0  02:28       0.476        6.76       0.033
  WS02003066           JUNCTION      0.00   537.27     0  02:28           0        6.29       0.022
  WS02003067           JUNCTION      0.00   537.31     0  02:28           0        6.29       0.066
  WS02003069           JUNCTION      0.32   554.04     0  02:38     0.00922        6.77       0.059
  WS02003072           JUNCTION      0.00   553.83     0  02:39           0        6.77       0.106
  WS02003073           JUNCTION      1.82   555.45     0  02:39      0.0524        6.81       0.086
  WS02004401           JUNCTION      0.00   538.35     0  02:22           0        6.39       0.157
  WS02004402           JUNCTION      0.00   539.19     0  02:23           0        6.38       0.161
  WS02004403           JUNCTION      0.00   540.94     0  02:18           0        6.37       0.156
  WS02004404           JUNCTION      0.16   557.87     0  02:26     0.00467        6.36       0.154
  WS02004405           JUNCTION      0.04   604.95     0  02:33      0.0011        6.36       0.109
  WS02004406           JUNCTION      0.00   544.51     0  02:34           0        6.35       0.323
  WS02004407           JUNCTION      0.00   539.91     0  01:56           0        6.33       0.017
  WS02004409           JUNCTION      0.00   539.34     0  01:56           0        6.33       0.041
  WS02004410           JUNCTION      0.00   538.33     0  01:56           0        6.33       0.069
  WS02004411           JUNCTION      0.00   538.15     0  02:27           0        6.32       0.088
  WS02004412           JUNCTION      0.00   537.62     0  02:27           0        6.32       0.118
  WS02004413           JUNCTION      0.00   537.86     0  02:27           0        6.31       0.209
  WS02006109           JUNCTION      1.23   564.65     0  03:03      0.0354        6.43       0.151
  WS02006110           JUNCTION      0.00   564.85     0  03:02           0        6.42       0.097
  WS02006111           JUNCTION      0.00   561.96     0  02:03           0        6.42       0.010
  WS02006112           JUNCTION      0.00   542.65     0  03:09           0        6.42       0.273
  WS02006113           JUNCTION      0.00   572.74     0  02:51           0        6.42       0.027
  WS02006115           JUNCTION      0.00   552.36     0  01:46           0         6.4       0.100
  WS02006116           JUNCTION      0.00   540.89     0  02:20           0        6.39       0.028
  WS02006228           JUNCTION      0.00   563.65     0  03:03           0         6.4       0.058
  WS02006229           JUNCTION      0.00   562.66     0  03:03           0        6.41       0.068
  WS02006230           JUNCTION     10.28   594.45     0  02:26       0.296        6.41       0.052
  WS02006231           JUNCTION      0.00   574.49     0  02:00           0        6.11      -0.014
  WS02006232           JUNCTION      0.00   573.75     0  02:00           0        6.12       0.152
  WS02006234           JUNCTION      0.00   568.98     0  02:00           0        6.11      -0.128
  WS02006235           JUNCTION      0.00   563.02     0  01:40           0        6.18       0.129
  WS02006238           JUNCTION      0.00   424.87     0  02:35           0        5.16      -0.093
  WS02006239           JUNCTION      0.00   423.65     0  02:35           0        5.13      -0.087
  WS02006240           JUNCTION      0.00   421.52     0  03:10           0         5.1      -0.043
  WS02006242           JUNCTION      0.00   421.54     0  03:10           0        5.07      -0.022
  WS02006243           JUNCTION      0.00   421.11     0  03:10           0        5.06      -0.097
  WS02006245           JUNCTION      0.00   420.74     0  02:35           0        5.06       0.154
  WS02006247           JUNCTION      0.00   421.85     0  02:35           0        5.06      -0.013
  WS02006248           JUNCTION      0.00   421.80     0  02:35           0        5.06       0.042
  WS02006249           JUNCTION      0.00   459.02     0  00:00           0        5.35       0.174
  WS02006251           JUNCTION      0.08   409.63     0  01:39     0.00222        5.35       0.002
  WS02006252           JUNCTION      0.00   400.00     0  00:00           0        5.34      -0.083
  WS02006256           JUNCTION      0.00   300.00     0  00:00           0        1.53      -0.628
  WSF200               JUNCTION      0.00   537.33     0  02:28           0        6.29       0.007
  YS02001580           JUNCTION      0.00   122.57     0  01:31           0     0.00441      -0.087
  YS02001583           JUNCTION      0.00   204.09     0  01:31           0      0.0151      -6.583
  YS02001586           JUNCTION   1117.89  1117.89     0  01:42         2.8        2.81       0.055
  YS02001590           JUNCTION      0.00   318.06     0  01:42           0        1.78      -0.027
  YS02001593           JUNCTION      0.00   318.22     0  02:14           0        1.78       0.006
  YS02001596           JUNCTION      0.00   318.01     0  02:00           0        1.78      -0.021
  YS02001600           JUNCTION      0.00   318.09     0  02:05           0        1.78       0.010
  YS02001601           JUNCTION   2028.83  2346.33     0  01:40        3.77        5.55       0.011
  YS02001602           JUNCTION      0.00   556.50     0  01:31           0        2.81       0.014
  YS02001605           JUNCTION      0.00   556.66     0  01:31           0        2.59       0.014
  YS02001607           JUNCTION      0.00   556.79     0  01:31           0        2.59       0.073
  YS02001610           JUNCTION      0.00   954.48     0  01:47           0         3.3       0.064
  YS02001613           JUNCTION      0.00   618.08     0  01:47           0        2.49       0.070
  YS02001616           JUNCTION      0.00   618.02     0  01:47           0        2.49       0.018
  YS02001619           JUNCTION   1993.77  1993.77     0  01:41        4.51        6.28      -0.003
  YS02001622           JUNCTION      0.00  1053.97     0  01:47           0        5.44      -0.007
  YS02001625           JUNCTION      0.00  1505.04     0  01:47           0        5.89       0.161
  YS02001629           JUNCTION      0.00   927.13     0  01:31           0        4.14      -0.019
  YS02001633           JUNCTION   1523.31  1523.31     0  01:40        2.77        6.21       0.051
  YS02001641           JUNCTION      0.00  1434.42     0  01:33           0        5.53       0.046
  YS02001644           JUNCTION   1359.81  2338.28     0  01:39        2.41        7.99       0.036
  YS02001647           JUNCTION      0.00  1909.95     0  01:33           0        6.46       0.003
  YS02001649           JUNCTION      0.00  2174.92     0  01:33           0        8.63      -0.003
  YS02001652           JUNCTION      0.00  1327.88     0  01:39           0        2.23      -0.071
  YS02001655           JUNCTION      0.15  1327.77     0  01:39     0.00443        2.23       0.040
  YS02001658           JUNCTION      0.00  1327.69     0  01:38           0        2.22      -0.041
  YS02001661           JUNCTION      0.00  1327.53     0  01:39           0        2.22      -0.000
  YS02001664           JUNCTION   1329.16  1329.16     0  01:39        2.22        2.22      -0.023
  YS02001745           JUNCTION    859.69   859.69     0  01:38        1.32        1.33       0.135
  YS02001748           JUNCTION      0.04   866.53     0  01:38      0.0013        1.33      -0.324
  YS02001751           JUNCTION      0.01   867.18     0  01:38    0.000317        1.34       0.056
  YS02001754           JUNCTION      0.26   867.87     0  01:38     0.00749        1.35      -0.098
  YS02001757           JUNCTION      0.00  3621.68     0  01:35           0        13.7       0.030
  YS02001759           JUNCTION   1192.00  1577.53     0  01:35        1.84        3.83      -0.012
  YS02001762           JUNCTION      0.00   887.09     0  01:35           0        1.99      -0.001
  YS02001765           JUNCTION      0.00   887.13     0  01:35           0        1.99      -0.004
  YS02001767           JUNCTION      0.54   888.62     0  01:35      0.0154        1.99      -0.002
  YS02001770           JUNCTION   1677.99  1677.99     0  01:39        2.78        2.83      -0.026
  YS02001774           JUNCTION      0.00   851.72     0  01:42           0       0.709       0.131
  YS02001779           JUNCTION      0.01   851.58     0  01:41    0.000144       0.662      -0.081
  YS02001783           JUNCTION      0.00  1177.95     0  01:37           0        5.41       0.003
  YS02001784           JUNCTION      1.06  1178.64     0  01:37      0.0305        5.44       0.008
  YS02001786           JUNCTION      0.06  1178.65     0  01:36     0.00162        5.44       0.012
  YS02001788           JUNCTION      0.07  1180.31     0  01:36     0.00204        5.44       0.005
  YS02001790           JUNCTION      0.15  1186.42     0  01:37     0.00446        5.44       0.029
  YS02001791           JUNCTION      0.00  1309.51     0  01:37           0        5.44      -0.036
  YS02001793           JUNCTION      0.00  1256.34     0  01:37           0        5.44       0.003
  YS02001882           JUNCTION      0.00    61.85     0  01:32           0       0.014       5.341
  YS02001884           JUNCTION      0.00   116.22     0  01:32           0      0.0505       5.493
  YS02001887           JUNCTION   1301.61  1301.61     0  01:38         1.9        1.93       0.218
  YS02001890           JUNCTION      0.00  1301.85     0  01:38           0        1.89       0.256
  YS02001895           JUNCTION      0.00   528.54     0  01:33           0        1.51       0.126
  YS02001898           JUNCTION      0.00   527.69     0  01:33           0        1.51      -0.014
  YS02001901           JUNCTION      0.00   533.24     0  01:32           0        1.51       0.229
  YS02001904           JUNCTION      0.00   534.12     0  01:32           0        1.52       0.176
  YS02001907           JUNCTION      0.00  3057.55     0  01:39           0        5.79       0.295
  YS02001910           JUNCTION      0.00  1993.21     0  01:41           0        4.08       0.177
  YS02001915           JUNCTION   1472.96  2185.67     0  01:40        2.65        4.17       0.028
  YS02001918           JUNCTION      0.00   715.78     0  01:40           0        1.56      -0.003
  YS02001920           JUNCTION      2.87   715.99     0  01:40      0.0827        1.54       0.057
  YS02001923           JUNCTION      0.04   712.36     0  01:40     0.00109        1.44      -0.050
  YS02001926           JUNCTION      0.05   958.97     0  01:33      0.0015        1.42      -0.021
  YS02001929           JUNCTION    711.23   786.02     0  01:33        1.39         1.4      -0.036
  YS02006553           JUNCTION      0.00   791.37     0  02:09           0        3.06       0.388
  YS02006556           JUNCTION      0.00   791.21     0  02:09           0        3.07       0.260
  YS02006558           JUNCTION   1720.14  1720.14     0  01:39        2.79        5.64       0.067
  YS02006561           JUNCTION      0.00  1179.22     0  01:33           0        5.41      -0.006
  YS02163301           JUNCTION      0.00   921.92     0  01:32           0        4.12       0.033
  YS02163601           JUNCTION      0.11  1435.42     0  01:33     0.00317        5.53       0.086
  YS02164001           JUNCTION      0.00  1435.05     0  01:33           0        5.53       0.033
  CC-1                 OUTFALL       0.00   683.00     0  00:00           0        4.92       0.000
  CC-2                 OUTFALL       0.00   683.00     0  00:00           0        4.32       0.000
  JK-1                 OUTFALL       0.00  1000.00     0  00:00           0        3.19       0.000
  JK-2                 OUTFALL       0.00  1000.00     0  00:00           0       0.685       0.000
  WSC                  OUTFALL       0.00   555.25     0  02:30           0        6.81       0.000
  CC-storage           STORAGE       0.00  3624.43     0  01:35           0          16      -0.194
  JK-storage           STORAGE       0.00  1254.87     0  01:53           0        5.59       0.107
  
  
  **********************
  Node Surcharge Summary
  **********************
  
  Surcharging occurs when water rises above the top of the highest conduit.
  ---------------------------------------------------------------------
                                               Max. Height   Min. Depth
                                   Hours       Above Crown    Below Rim
  Node                 Type      Surcharged         Meters       Meters
  ---------------------------------------------------------------------
  WS02004404           JUNCTION        0.02          0.040        2.740
  WS02006109           JUNCTION        2.45          0.464        1.356
  WS02006110           JUNCTION        0.94          0.637        1.213
  WS02006112           JUNCTION        1.14          0.096        1.584
  WS02006228           JUNCTION        2.45          0.622        1.578
  WS02006229           JUNCTION        2.45          0.714        1.736
  WS02006230           JUNCTION        0.95          0.819        0.751
  WS02006231           JUNCTION        1.08          0.722        0.808
  WS02006232           JUNCTION        2.54          0.880        0.600
  WS02006234           JUNCTION        1.35          0.847        0.393
  WS02006235           JUNCTION        2.42          0.898        0.392
  WS02006238           JUNCTION        2.48          0.921        0.509
  WS02006239           JUNCTION        2.44          0.854        0.436
  WS02006240           JUNCTION        2.47          0.805        0.585
  WS02006242           JUNCTION        2.56          0.820        0.000
  WS02006243           JUNCTION        2.48          0.738        0.032
  WS02006245           JUNCTION        2.47          0.661        0.189
  WS02006247           JUNCTION        2.49          0.596        0.164
  WS02006248           JUNCTION        2.46          0.380        0.000
  WS02006249           JUNCTION        2.47          0.390        0.000
  WS02006251           JUNCTION        1.16          0.451        0.729
  WS02006252           JUNCTION        2.90          1.100        0.000
  WS02006256           JUNCTION        6.38          2.050        0.000
  YS02001580           JUNCTION        1.00          0.450        0.000
  YS02001583           JUNCTION        1.01          0.477        0.023
  YS02001586           JUNCTION        1.25          0.510        0.000
  YS02001590           JUNCTION        1.35          0.750        0.000
  YS02001593           JUNCTION        1.35          0.727        0.113
  YS02001596           JUNCTION        1.51          0.977        0.093
  YS02001600           JUNCTION        1.63          1.190        0.000
  YS02001601           JUNCTION        1.84          1.440        0.000
  YS02001602           JUNCTION        1.78          1.270        0.000
  YS02001605           JUNCTION        1.75          1.180        0.000
  YS02001607           JUNCTION        1.39          0.680        0.000
  YS02001610           JUNCTION        1.42          0.680        0.000
  YS02001613           JUNCTION        1.38          0.700        0.000
  YS02001616           JUNCTION        1.33          0.610        0.000
  YS02001619           JUNCTION        1.31          0.610        0.000
  YS02001622           JUNCTION        1.31          0.620        0.000
  YS02001625           JUNCTION        1.53          0.780        0.000
  YS02001629           JUNCTION        1.24          0.470        0.000
  YS02001633           JUNCTION        1.56          1.060        0.000
  YS02001641           JUNCTION        1.53          1.073        0.027
  YS02001644           JUNCTION        1.52          0.920        0.000
  YS02001647           JUNCTION        1.29          0.844        0.056
  YS02001649           JUNCTION        1.47          1.050        0.000
  YS02001652           JUNCTION        1.21          1.130        0.000
  YS02001655           JUNCTION        0.96          1.200        0.000
  YS02001658           JUNCTION        0.48          1.300        0.000
  YS02001661           JUNCTION        0.19          1.146        0.244
  YS02001664           JUNCTION        0.01          0.961        0.349
  YS02001745           JUNCTION        0.01          1.233        0.117
  YS02001748           JUNCTION        0.37          1.190        0.000
  YS02001751           JUNCTION        0.75          1.200        0.000
  YS02001754           JUNCTION        1.12          1.150        0.000
  YS02001757           JUNCTION        1.53          1.210        0.000
  YS02001759           JUNCTION        1.45          1.208        0.002
  YS02001762           JUNCTION        1.41          1.150        0.000
  YS02001765           JUNCTION        1.36          1.100        0.000
  YS02001767           JUNCTION        1.31          1.030        0.000
  YS02001770           JUNCTION        1.27          0.920        0.000
  YS02001774           JUNCTION        1.39          1.040        0.010
  YS02001779           JUNCTION        1.09          0.680        0.000
  YS02001783           JUNCTION        0.83          0.903        0.697
  YS02001784           JUNCTION        0.80          0.583        0.907
  YS02001786           JUNCTION        0.67          0.229        1.201
  YS02001882           JUNCTION        0.75          0.759        0.071
  YS02001884           JUNCTION        0.77          0.777        0.093
  YS02001887           JUNCTION        0.81          0.895        0.055
  YS02001890           JUNCTION        0.83          0.760        0.000
  YS02001895           JUNCTION        0.74          0.584        0.166
  YS02001898           JUNCTION        0.73          0.566        0.174
  YS02001901           JUNCTION        0.79          0.696        0.174
  YS02001904           JUNCTION        0.78          0.657        0.193
  YS02001907           JUNCTION        1.09          0.950        0.000
  YS02001910           JUNCTION        0.87          1.042        0.058
  YS02001915           JUNCTION        0.75          1.000        0.000
  YS02001918           JUNCTION        0.65          0.810        0.000
  YS02001920           JUNCTION        0.66          1.091        0.049
  YS02001923           JUNCTION        0.27          0.820        0.000
  YS02001926           JUNCTION        0.30          0.900        0.000
  YS02001929           JUNCTION        0.16          0.780        0.000
  YS02006553           JUNCTION        1.14          1.099        0.091
  YS02006556           JUNCTION        0.97          1.183        0.167
  YS02006558           JUNCTION        0.96          1.203        0.197
  YS02006561           JUNCTION        0.61          0.763        0.387
  YS02163301           JUNCTION        1.55          0.977        0.053
  YS02163601           JUNCTION        1.59          1.080        0.000
  YS02164001           JUNCTION        1.53          1.100        0.000
  
  
  *********************
  Node Flooding Summary
  *********************
  
  Flooding refers to all water that overflows a node, whether it ponds or not.
  --------------------------------------------------------------------------
                                                             Total   Maximum
                                 Maximum   Time of Max       Flood    Ponded
                        Hours       Rate    Occurrence      Volume     Depth
  Node                 Flooded       LPS   days hr:min    10^6 ltr    Meters
  --------------------------------------------------------------------------
  WS02006242              0.01      2.58      0  03:02       0.000     0.000
  WS02006248              0.01     21.79      0  02:10       0.000     0.000
  WS02006249              1.13    109.94      0  01:39       0.273     0.000
  WS02006252              0.01    245.63      0  00:00       0.000     0.000
  WS02006256              1.42    293.19      0  00:00       0.490     0.000
  YS02001580              0.01     91.97      0  01:31       0.000     0.000
  YS02001586              0.83    800.26      0  01:42       1.020     0.000
  YS02001590              0.01      2.41      0  01:31       0.000     0.000
  YS02001600              0.01      2.95      0  01:31       0.000     0.000
  YS02001601              1.14   1948.47      0  01:40       2.738     0.000
  YS02001602              1.06     62.17      0  01:42       0.216     0.000
  YS02001605              0.01      3.94      0  01:31       0.000     0.000
  YS02001607              0.01      0.24      0  02:14       0.000     0.000
  YS02001610              0.91    953.85      0  01:46       1.524     0.000
  YS02001613              0.01      0.85      0  02:36       0.000     0.000
  YS02001616              0.04      1.70      0  01:38       0.000     0.000
  YS02001619              0.19    324.12      0  01:41       0.132     0.000
  YS02001622              0.01      0.63      0  02:36       0.000     0.000
  YS02001625              0.90   1504.78      0  01:47       2.425     0.000
  YS02001629              0.25    529.62      0  01:37       0.245     0.000
  YS02001633              0.01      4.52      0  01:33       0.000     0.000
  YS02001644              0.38   2338.09      0  01:39       1.573     0.000
  YS02001649              0.01    228.27      0  01:35       0.004     0.000
  YS02001652              0.01     82.60      0  01:34       0.000     0.000
  YS02001655              0.01    342.82      0  01:34       0.000     0.000
  YS02001658              0.01    343.89      0  01:34       0.001     0.000
  YS02001748              0.01    477.89      0  01:34       0.001     0.000
  YS02001751              0.01    227.60      0  01:34       0.000     0.000
  YS02001754              0.01     66.26      0  01:34       0.000     0.000
  YS02001757              0.01     77.78      0  01:35       0.001     0.000
  YS02001762              0.01     25.51      0  01:35       0.000     0.000
  YS02001765              0.01     30.85      0  01:33       0.000     0.000
  YS02001767              0.01    154.01      0  01:33       0.000     0.000
  YS02001770              0.14    548.96      0  01:39       0.164     0.000
  YS02001779              0.34    851.31      0  01:41       0.642     0.000
  YS02001890              0.28    785.52      0  01:38       0.375     0.000
  YS02001907              0.58   3057.15      0  01:39       2.915     0.000
  YS02001915              0.10    192.94      0  01:40       0.041     0.000
  YS02001918              0.01    155.76      0  01:34       0.002     0.000
  YS02001923              0.01     77.97      0  01:34       0.000     0.000
  YS02001926              0.01    780.12      0  01:34       0.005     0.000
  YS02001929              0.01    569.21      0  01:34       0.001     0.000
  YS02163601              0.01      9.28      0  01:33       0.000     0.000
  YS02164001              0.01      4.09      0  01:34       0.000     0.000
  
  
  **********************
  Storage Volume Summary
  **********************
  
  ------------------------------------------------------------------------------------------------
                         Average    Avg   Evap  Exfil     Maximum    Max    Time of Max    Maximum
                          Volume   Pcnt   Pcnt   Pcnt      Volume   Pcnt     Occurrence    Outflow
  Storage Unit           1000 m³   Full   Loss   Loss     1000 m³   Full    days hr:min        LPS
  ------------------------------------------------------------------------------------------------
  CC-storage               2.627   41.0    0.0    0.0       5.301   82.7       0  02:24    1783.53
  JK-storage               0.158   54.4    0.0    0.0       0.213   73.0       0  01:40    2300.00
  
  
  ***********************
  Outfall Loading Summary
  ***********************
  
  -----------------------------------------------------------
                         Flow       Avg       Max       Total
                         Freq      Flow      Flow      Volume
  Outfall Node           Pcnt       LPS       LPS    10^6 ltr
  -----------------------------------------------------------
  CC-1                  23.18    683.00    683.00       4.917
  CC-2                  20.76    683.00    683.00       4.325
  JK-1                  11.29   1000.00   1000.00       3.187
  JK-2                   2.11   1000.00   1000.00       0.685
  WSC                   99.96    296.54    555.25       6.807
  -----------------------------------------------------------
  System                31.46   3662.54   3916.43      19.920
  
  
  ********************
  Link Flow Summary
  ********************
  
  -----------------------------------------------------------------------------
                                 Maximum  Time of Max   Maximum    Max/    Max/
                                  |Flow|   Occurrence   |Veloc|    Full    Full
  Link                 Type          LPS  days hr:min     m/sec    Flow   Depth
  -----------------------------------------------------------------------------
  1                    CONDUIT    555.25     0  02:30      2.83    0.19    0.30
  WS02003060WS02003069 CONDUIT    553.72     0  02:38      1.64    0.22    0.34
  WS02003066WSF200     CONDUIT    537.33     0  02:28      2.85    0.09    0.22
  WS02003067WS02003066 CONDUIT    537.27     0  02:28      1.21    0.17    0.42
  WS02003069WS02003072 CONDUIT    553.83     0  02:39      1.37    0.27    0.39
  WS02003072WS02003073 CONDUIT    553.63     0  02:39      1.44    1.20    0.37
  WS02004401WS02004402 CONDUIT    539.19     0  02:23      0.98    0.65    0.89
  WS02004402WS02004403 CONDUIT    540.94     0  02:18      0.97    0.78    0.91
  WS02004403WS02004404 CONDUIT    557.71     0  02:26      0.92    0.40    0.96
  WS02004404WS02004405 CONDUIT    604.91     0  02:33      1.08    5.93    0.98
  WS02004405WS02004406 CONDUIT    544.51     0  02:34      0.99    1.07    0.96
  WS02004406WS02004407 CONDUIT    539.91     0  01:56      1.04    0.24    0.63
  WS02004407WS02004409 CONDUIT    539.34     0  01:56      1.58    0.19    0.48
  WS02004409WS02004410 CONDUIT    538.33     0  01:56      1.05    0.70    0.68
  WS02004410WS02004411 CONDUIT    538.15     0  02:27      1.00    0.74    0.69
  WS02004411WS02004412 CONDUIT    537.62     0  02:27      0.96    0.76    0.69
  WS02004412WS02004413 CONDUIT    537.86     0  02:27      0.82    0.36    0.78
  WS02004413WS02003067 CONDUIT    537.31     0  02:28      1.11    0.23    0.59
  WS02006109WS02006110 CONDUIT    564.85     0  03:02      1.13    1.09    1.00
  WS02006110WS02006113 CONDUIT    572.74     0  02:51      1.39    0.52    0.79
  WS02006111WS02006112 CONDUIT    542.65     0  03:09      1.81    0.26    0.67
  WS02006112WS02006115 CONDUIT    552.36     0  01:46      0.88    0.33    0.88
  WS02006113WS02006111 CONDUIT    561.96     0  02:03      2.47    0.67    0.46
  WS02006115WS02006116 CONDUIT    540.89     0  02:20      1.11    0.69    0.78
  WS02006116WS02004401 CONDUIT    538.35     0  02:22      0.98    0.74    0.86
  WS02006228WS02006109 CONDUIT    563.42     0  03:03      1.12    2.46    1.00
  WS02006229WS02006228 CONDUIT    563.65     0  03:03      1.14    1.87    1.00
  WS02006230WS02006229 CONDUIT    562.66     0  03:03      1.46   12.52    1.00
  WS02006231WS02006230 CONDUIT    584.17     0  02:26      1.59    8.86    1.00
  WS02006232WS02006231 CONDUIT    574.49     0  02:00      1.50    1.20    1.00
  WS02006234WS02006232 CONDUIT    573.75     0  02:00      1.49    1.16    1.00
  WS02006235WS02006234 CONDUIT    568.98     0  02:00      1.48    6.00    1.00
  WS02006238WS02006235 CONDUIT    424.88     0  02:35      1.45    0.95    1.00
  WS02006239WS02006238 CONDUIT    424.87     0  02:35      1.10    1.36    1.00
  WS02006240WS02006239 CONDUIT    423.65     0  02:35      1.24    1.33    1.00
  WS02006242WS02006240 CONDUIT    421.52     0  03:10      1.13    1.67    1.00
  WS02006243WS02006242 CONDUIT    421.54     0  03:10      1.40    0.90    1.00
  WS02006245WS02006243 CONDUIT    421.11     0  03:10      1.45    1.25    1.00
  WS02006247WS02006245 CONDUIT    420.74     0  02:35      1.43    3.34    1.00
  WS02006248WS02006247 CONDUIT    421.85     0  02:35      1.44    0.92    1.00
  WS02006249WS02006248 CONDUIT    421.80     0  02:35      1.37    2.31    1.00
  WS02006251WS02006249 CONDUIT    459.02     0  00:00      1.99    1.32    1.00
  WS02006252WS02006251 CONDUIT    409.56     0  01:39     24.80    1.50    1.00
  WS02006256WS02006235 CONDUIT    288.91     0  00:00      4.23    3.06    1.00
  WSF200WS02003060     CONDUIT    537.58     0  02:28      2.06    0.12    0.28
  YS02001580YS02001583 CONDUIT    122.57     0  01:31      0.78    0.47    1.00
  YS02001583YS02001586 CONDUIT    181.39     0  01:31      0.79    0.27    1.00
  YS02001586YS02001590 CONDUIT    318.06     0  01:42      1.26    0.56    1.00
  YS02001590YS02001593 CONDUIT    318.22     0  02:14      1.13    2.00    1.00
  YS02001593YS02001596 CONDUIT    318.01     0  02:00      1.69    0.50    1.00
  YS02001596YS02001600 CONDUIT    318.09     0  02:05      1.24    0.62    1.00
  YS02001600YS02001601 CONDUIT    317.86     0  02:00      1.12    0.55    1.00
  YS02001601YS02001602 CONDUIT    556.50     0  01:31      1.97    2.01    1.00
  YS02001602YS02001605 CONDUIT    556.66     0  01:31      1.97   11.78    1.00
  YS02001605YS02001607 CONDUIT    556.79     0  01:31      1.97    3.05    1.00
  YS02001607YS02001610 CONDUIT    543.83     0  01:31      0.69    0.52    1.00
  YS02001610YS02001613 CONDUIT    618.18     0  01:45      0.79    0.71    1.00
  YS02001613YS02001616 CONDUIT    618.08     0  01:47      0.79    0.53    1.00
  YS02001616YS02001619 CONDUIT    618.02     0  01:47      0.79    1.07    1.00
  YS02001619YS02001622 CONDUIT   1053.97     0  01:47      1.34    1.55    1.00
  YS02001622YS02001625 CONDUIT   1053.70     0  01:45      1.34    0.56    1.00
  YS02001625YS02001629 CONDUIT    927.13     0  01:31      1.18    0.44    1.00
  YS02001629YS02163301 CONDUIT    921.92     0  01:32      1.17    1.14    1.00
  YS02001633YS02163601 CONDUIT   1435.31     0  01:33      1.83    1.51    1.00
  YS02001641YS02001644 CONDUIT   1434.17     0  01:33      1.83    4.64    1.00
  YS02001644YS02001647 CONDUIT   1909.95     0  01:33      2.44    1.12    1.00
  YS02001647YS02001649 CONDUIT   1885.41     0  01:33      2.40    1.00    1.00
  YS02001649YS02001757 CONDUIT   2171.02     0  01:33      2.76    1.32    1.00
  YS02001652YS02001649 CONDUIT   1328.29     0  01:38      1.69    0.66    1.00
  YS02001655YS02001652 CONDUIT   1327.88     0  01:39      1.69    0.64    1.00
  YS02001658YS02001655 CONDUIT   1327.62     0  01:39      1.99    0.56    1.00
  YS02001661YS02001658 CONDUIT   1327.69     0  01:38      2.42    0.52    1.00
  YS02001664YS02001661 CONDUIT   1327.53     0  01:39      2.51    0.42    1.00
  YS02001745YS02001748 CONDUIT    866.49     0  01:38      2.34    0.33    1.00
  YS02001748YS02001751 CONDUIT    867.17     0  01:38      1.82    0.44    1.00
  YS02001751YS02001754 CONDUIT    867.61     0  01:38      1.55    0.42    1.00
  YS02001754YS02001757 CONDUIT    867.95     0  01:38      1.11    0.35    1.00
  YS02001757CaochengTiaoxuchi CONDUIT   3624.43     0  01:35      4.63    1.57    1.00
  YS02001759YS02001757 CONDUIT   1575.71     0  01:35      2.01    1.12    1.00
  YS02001762YS02001759 CONDUIT    885.68     0  01:35      1.13    1.02    1.00
  YS02001765YS02001762 CONDUIT    887.09     0  01:35      1.13    0.83    1.00
  YS02001767YS02001765 CONDUIT    887.13     0  01:35      1.13    1.12    1.00
  YS02001770YS02001767 CONDUIT    888.08     0  01:35      1.13    3.52    1.00
  YS02001774YS02001770 CONDUIT    851.72     0  01:42      1.08    0.54    1.00
  YS02001779YS02001774 CONDUIT    851.57     0  01:41      1.08    0.43    1.00
  YS02001783YS02001784 CONDUIT   1177.58     0  01:37      2.34    1.62    1.00
  YS02001784YS02001785 CONDUIT   1178.59     0  01:36      2.34    2.74    1.00
  YS02001786YS02001788 CONDUIT   1180.24     0  01:36      2.50    2.27    0.89
  YS02001788YS02001790 CONDUIT   1186.26     0  01:37      2.73    0.87    0.85
  YS02001790YS02001791 CONDUIT   1309.51     0  01:37      3.46    1.42    0.71
  YS02001791YS02001793 CONDUIT   1256.34     0  01:37      6.72    0.54    0.45
  YS02001793JiankangQianchi CONDUIT   1254.87     0  01:53      2.52    0.10    0.65
  YS02001882YS02001884 CONDUIT     61.85     0  01:32      0.19    0.07    1.00
  YS02001884YS02001887 CONDUIT    116.22     0  01:32      0.15    0.15    1.00
  YS02001887YS02001890 CONDUIT   1301.85     0  01:38      1.66    2.23    1.00
  YS02001890YS02001895 CONDUIT    528.54     0  01:33      0.67    0.25    1.00
  YS02001895YS02001898 CONDUIT    527.69     0  01:33      0.67    0.92    1.00
  YS02001898YS02001901 CONDUIT    533.24     0  01:32      0.68    0.34    1.00
  YS02001901YS02001904 CONDUIT    534.12     0  01:32      0.68    0.83    1.00
  YS02001904YS02001907 CONDUIT    541.86     0  01:32      0.69    0.19    1.00
  YS02001907YS02006553 CONDUIT    791.37     0  02:09      0.88    0.93    1.00
  YS02001910YS02001907 CONDUIT   1993.00     0  01:41      2.54    1.12    1.00
  YS02001915YS02001910 CONDUIT   1993.21     0  01:41      2.54    0.99    1.00
  YS02001918YS02001915 CONDUIT    715.96     0  01:40      0.91    0.39    1.00
  YS02001920YS02001918 CONDUIT    715.78     0  01:40      0.91    0.69    1.00
  YS02001923YS02001920 CONDUIT    713.12     0  01:40      0.91    0.32    1.00
  YS02001926YS02001923 CONDUIT    740.20     0  01:33      1.17    1.06    1.00
  YS02001929YS02001926 CONDUIT    712.28     0  01:40      1.19    0.34    1.00
  YS02006553YS02006556 CONDUIT    791.21     0  02:09      1.01    0.68    1.00
  YS02006556YS02006558 CONDUIT    791.82     0  02:09      1.01    0.63    1.00
  YS02006558YS02006561 CONDUIT   1179.22     0  01:33      4.17    2.61    1.00
  YS02006561YS02001783 CONDUIT   1177.95     0  01:37      2.34    0.61    1.00
  YS02163301YS02001633 CONDUIT    921.96     0  01:32      1.17    0.87    1.00
  YS02163601YS02164001 CONDUIT   1435.05     0  01:33      1.83    1.27    1.00
  YS02164001YS02001641 CONDUIT   1434.42     0  01:33      1.83    1.96    1.00
  CC-R1                PUMP       683.00     0  00:00              1.00
  CC-R2                PUMP       683.00     0  00:00              1.00
  CC-S1                PUMP       200.00     0  00:00              1.00
  CC-S2                PUMP       200.00     0  00:00              1.00
  JK-R1                PUMP      1000.00     0  00:00              1.00
  JK-R2                PUMP      1000.00     0  00:00              1.00
  JK-S                 PUMP       300.00     0  00:00              1.00
  
  
  ***************************
  Flow Classification Summary
  ***************************
  
  -------------------------------------------------------------------------------------
                      Adjusted    ---------- Fraction of Time in Flow Class ---------- 
                       /Actual         Up    Down  Sub   Sup   Up    Down  Norm  Inlet 
  Conduit               Length    Dry  Dry   Dry   Crit  Crit  Crit  Crit  Ltd   Ctrl  
  -------------------------------------------------------------------------------------
  1                       1.00   0.00  0.00  0.00  0.00  1.00  0.00  0.00  0.39  0.00
  WS02003060WS02003069    1.00   0.00  0.00  0.00  0.99  0.01  0.00  0.00  0.61  0.00
  WS02003066WSF200        1.00   0.12  0.00  0.00  0.00  0.88  0.00  0.00  0.74  0.00
  WS02003067WS02003066    1.00   0.10  0.02  0.00  0.88  0.00  0.00  0.00  0.00  0.00
  WS02003069WS02003072    1.00   0.00  0.00  0.00  0.99  0.01  0.00  0.00  0.67  0.00
  WS02003072WS02003073    1.00   0.00  0.00  0.00  0.00  0.00  0.00  1.00  0.00  0.00
  WS02004401WS02004402    1.00   0.02  0.00  0.00  0.98  0.00  0.00  0.00  0.00  0.00
  WS02004402WS02004403    1.00   0.02  0.00  0.00  0.97  0.00  0.00  0.00  0.00  0.00
  WS02004403WS02004404    1.00   0.00  0.03  0.00  0.97  0.00  0.00  0.00  0.00  0.00
  WS02004404WS02004405    1.00   0.00  0.00  0.00  1.00  0.00  0.00  0.00  0.01  0.00
  WS02004405WS02004406    1.00   0.00  0.00  0.00  1.00  0.00  0.00  0.00  0.00  0.00
  WS02004406WS02004407    1.00   0.00  0.05  0.00  0.95  0.00  0.00  0.00  0.00  0.00
  WS02004407WS02004409    1.00   0.05  0.00  0.00  0.94  0.01  0.00  0.00  0.94  0.00
  WS02004409WS02004410    1.00   0.05  0.00  0.00  0.95  0.00  0.00  0.00  0.03  0.00
  WS02004410WS02004411    1.00   0.05  0.00  0.00  0.95  0.00  0.00  0.00  0.01  0.00
  WS02004411WS02004412    1.00   0.05  0.00  0.00  0.95  0.00  0.00  0.00  0.00  0.00
  WS02004412WS02004413    1.00   0.05  0.00  0.00  0.94  0.00  0.00  0.00  0.01  0.00
  WS02004413WS02003067    1.00   0.06  0.04  0.00  0.00  0.00  0.90  0.00  0.00  0.00
  WS02006109WS02006110    1.00   0.00  0.01  0.00  0.98  0.00  0.01  0.00  0.00  0.00
  WS02006110WS02006113    1.00   0.01  0.01  0.00  0.98  0.00  0.00  0.00  0.00  0.00
  WS02006111WS02006112    1.00   0.02  0.00  0.00  0.98  0.00  0.00  0.00  0.98  0.00
  WS02006112WS02006115    1.00   0.02  0.00  0.00  0.97  0.00  0.00  0.00  0.00  0.00
  WS02006113WS02006111    1.00   0.02  0.00  0.00  0.00  0.98  0.00  0.00  0.16  0.00
  WS02006115WS02006116    1.00   0.02  0.00  0.00  0.97  0.00  0.00  0.01  0.00  0.00
  WS02006116WS02004401    1.00   0.02  0.00  0.00  0.98  0.00  0.00  0.00  0.00  0.00
  WS02006228WS02006109    1.00   0.00  0.00  0.00  1.00  0.00  0.00  0.00  0.00  0.00
  WS02006229WS02006228    1.00   0.00  0.00  0.00  0.99  0.00  0.00  0.01  0.00  0.00
  WS02006230WS02006229    1.00   0.00  0.00  0.00  0.99  0.00  0.00  0.01  0.01  0.00
  WS02006231WS02006230    1.00   0.00  0.00  0.00  0.34  0.00  0.66  0.00  0.00  0.00
  WS02006232WS02006231    1.00   0.00  0.00  0.00  0.99  0.00  0.01  0.00  0.00  0.00
  WS02006234WS02006232    1.00   0.00  0.00  0.00  1.00  0.00  0.00  0.00  0.07  0.00
  WS02006235WS02006234    1.00   0.00  0.00  0.00  0.88  0.00  0.12  0.00  0.00  0.00
  WS02006238WS02006235    1.00   0.00  0.00  0.00  1.00  0.00  0.00  0.00  0.00  0.00
  WS02006239WS02006238    1.00   0.00  0.00  0.00  1.00  0.00  0.00  0.00  0.22  0.00
  WS02006240WS02006239    1.00   0.00  0.00  0.00  0.71  0.00  0.00  0.29  0.02  0.00
  WS02006242WS02006240    1.00   0.00  0.00  0.00  0.99  0.00  0.01  0.00  0.00  0.00
  WS02006243WS02006242    1.00   0.00  0.00  0.00  0.99  0.00  0.00  0.01  0.39  0.00
  WS02006245WS02006243    1.00   0.00  0.00  0.00  0.82  0.00  0.00  0.18  0.01  0.00
  WS02006247WS02006245    1.00   0.00  0.00  0.00  0.98  0.00  0.00  0.02  0.00  0.00
  WS02006248WS02006247    1.00   0.00  0.00  0.00  0.99  0.00  0.00  0.01  0.25  0.00
  WS02006249WS02006248    1.00   0.00  0.00  0.00  0.61  0.00  0.39  0.00  0.00  0.00
  WS02006251WS02006249    1.00   0.00  0.00  0.00  0.99  0.01  0.00  0.00  0.41  0.00
  WS02006252WS02006251    1.00   0.00  0.43  0.00  0.14  0.00  0.42  0.00  0.00  0.00
  WS02006256WS02006235    1.00   0.00  0.00  0.00  0.99  0.01  0.00  0.00  0.00  0.00
  WSF200WS02003060        1.00   0.00  0.12  0.00  0.21  0.66  0.00  0.00  0.34  0.00
  YS02001580YS02001583    1.00   0.19  0.55  0.00  0.26  0.00  0.00  0.00  0.64  0.00
  YS02001583YS02001586    1.00   0.40  0.28  0.00  0.31  0.00  0.00  0.00  0.65  0.00
  YS02001586YS02001590    1.00   0.13  0.00  0.00  0.45  0.04  0.00  0.38  0.31  0.00
  YS02001590YS02001593    1.00   0.13  0.01  0.00  0.19  0.00  0.68  0.00  0.00  0.00
  YS02001593YS02001596    1.00   0.13  0.00  0.00  0.20  0.01  0.00  0.66  0.01  0.00
  YS02001596YS02001600    1.00   0.13  0.00  0.00  0.24  0.01  0.00  0.61  0.03  0.00
  YS02001600YS02001601    1.00   0.13  0.01  0.00  0.87  0.00  0.00  0.00  0.57  0.00
  YS02001601YS02001602    1.00   0.13  0.01  0.00  0.87  0.00  0.00  0.00  0.00  0.00
  YS02001602YS02001605    1.00   0.13  0.00  0.00  0.87  0.00  0.00  0.00  0.00  0.00
  YS02001605YS02001607    1.00   0.13  0.00  0.00  0.87  0.00  0.00  0.00  0.00  0.00
  YS02001607YS02001610    1.00   0.13  0.00  0.00  0.86  0.00  0.00  0.00  0.01  0.00
  YS02001610YS02001613    1.00   0.13  0.00  0.00  0.87  0.00  0.00  0.00  0.00  0.00
  YS02001613YS02001616    1.00   0.13  0.00  0.00  0.87  0.00  0.00  0.00  0.00  0.00
  YS02001616YS02001619    1.00   0.13  0.00  0.00  0.87  0.00  0.00  0.00  0.00  0.00
  YS02001619YS02001622    1.00   0.13  0.00  0.00  0.87  0.00  0.00  0.00  0.28  0.00
  YS02001622YS02001625    1.00   0.13  0.00  0.00  0.87  0.00  0.00  0.00  0.02  0.00
  YS02001625YS02001629    1.00   0.13  0.03  0.00  0.22  0.00  0.62  0.00  0.00  0.00
  YS02001629YS02163301    1.00   0.14  0.01  0.00  0.85  0.00  0.00  0.00  0.00  0.00
  YS02001633YS02163601    1.00   0.00  0.01  0.00  0.99  0.00  0.00  0.00  0.14  0.00
  YS02001641YS02001644    1.00   0.00  0.01  0.00  0.99  0.00  0.00  0.00  0.00  0.00
  YS02001644YS02001647    1.00   0.00  0.15  0.00  0.85  0.00  0.00  0.00  0.00  0.00
  YS02001647YS02001649    1.00   0.00  0.15  0.00  0.61  0.23  0.00  0.00  0.54  0.00
  YS02001649YS02001757    1.00   0.00  0.00  0.00  0.90  0.09  0.00  0.00  0.38  0.00
  YS02001652YS02001649    1.00   0.00  0.00  0.00  0.98  0.02  0.00  0.00  0.70  0.00
  YS02001655YS02001652    1.00   0.00  0.00  0.00  0.25  0.00  0.00  0.74  0.03  0.00
  YS02001658YS02001655    1.00   0.00  0.14  0.00  0.74  0.13  0.00  0.00  0.62  0.00
  YS02001661YS02001658    1.00   0.14  0.00  0.00  0.58  0.28  0.00  0.00  0.66  0.00
  YS02001664YS02001661    1.00   0.13  0.00  0.00  0.80  0.08  0.00  0.00  0.82  0.00
  YS02001745YS02001748    1.00   0.00  0.00  0.00  0.19  0.00  0.00  0.81  0.05  0.00
  YS02001748YS02001751    1.00   0.00  0.00  0.00  0.90  0.10  0.00  0.00  0.73  0.00
  YS02001751YS02001754    1.00   0.00  0.00  0.00  0.24  0.00  0.00  0.75  0.03  0.00
  YS02001754YS02001757    1.00   0.00  0.00  0.00  1.00  0.00  0.00  0.00  0.74  0.00
  YS02001757CaochengTiaoxuchi    1.00   0.00  0.00  0.00  0.98  0.02  0.00  0.00  0.57  0.00
  YS02001759YS02001757    1.00   0.00  0.00  0.00  0.98  0.02  0.00  0.00  0.50  0.00
  YS02001762YS02001759    1.00   0.00  0.00  0.00  1.00  0.00  0.00  0.00  0.04  0.00
  YS02001765YS02001762    1.00   0.00  0.00  0.00  1.00  0.00  0.00  0.00  0.62  0.00
  YS02001767YS02001765    1.00   0.00  0.00  0.00  1.00  0.00  0.00  0.00  0.01  0.00
  YS02001770YS02001767    1.00   0.00  0.00  0.00  1.00  0.00  0.00  0.00  0.00  0.00
  YS02001774YS02001770    1.00   0.00  0.13  0.00  0.71  0.00  0.16  0.00  0.02  0.00
  YS02001779YS02001774    1.00   0.00  0.00  0.00  1.00  0.00  0.00  0.00  0.72  0.00
  YS02001783YS02001784    1.00   0.00  0.16  0.00  0.84  0.00  0.00  0.00  0.54  0.00
  YS02001784YS02001785    1.00   0.00  0.00  0.00  1.00  0.00  0.00  0.00  0.15  0.00
  YS02001786YS02001788    1.00   0.00  0.00  0.00  0.80  0.20  0.00  0.00  0.00  0.00
  YS02001788YS02001790    1.00   0.00  0.00  0.00  0.21  0.79  0.00  0.00  0.77  0.00
  YS02001790YS02001791    1.00   0.00  0.00  0.00  0.01  0.99  0.00  0.00  0.16  0.00
  YS02001791YS02001793    1.00   0.00  0.00  0.00  0.00  1.00  0.00  0.00  0.02  0.00
  YS02001793JiankangQianchi    1.00   0.00  0.00  0.00  0.97  0.03  0.00  0.00  0.92  0.00
  YS02001882YS02001884    1.00   0.14  0.00  0.00  0.85  0.00  0.00  0.00  0.00  0.00
  YS02001884YS02001887    1.00   0.06  0.05  0.00  0.89  0.00  0.00  0.00  0.00  0.00
  YS02001887YS02001890    1.00   0.00  0.00  0.00  0.97  0.00  0.03  0.00  0.00  0.00
  YS02001890YS02001895    1.00   0.00  0.15  0.00  0.85  0.00  0.00  0.00  0.00  0.00
  YS02001895YS02001898    1.00   0.15  0.00  0.00  0.84  0.00  0.01  0.00  0.00  0.00
  YS02001898YS02001901    1.00   0.15  0.00  0.00  0.85  0.00  0.00  0.00  0.00  0.00
  YS02001901YS02001904    1.00   0.15  0.00  0.00  0.85  0.00  0.00  0.00  0.00  0.00
  YS02001904YS02001907    1.00   0.00  0.15  0.00  0.85  0.00  0.00  0.00  0.00  0.00
  YS02001907YS02006553    1.00   0.00  0.02  0.00  0.98  0.00  0.00  0.00  0.00  0.00
  YS02001910YS02001907    1.00   0.00  0.00  0.00  0.97  0.00  0.00  0.03  0.11  0.00
  YS02001915YS02001910    1.00   0.00  0.00  0.00  0.97  0.03  0.00  0.00  0.12  0.00
  YS02001918YS02001915    1.00   0.00  0.01  0.00  0.98  0.02  0.00  0.00  0.69  0.00
  YS02001920YS02001918    1.00   0.00  0.01  0.00  0.99  0.00  0.00  0.00  0.00  0.00
  YS02001923YS02001920    1.00   0.00  0.00  0.00  1.00  0.00  0.00  0.00  0.88  0.00
  YS02001926YS02001923    1.00   0.00  0.07  0.00  0.09  0.00  0.83  0.00  0.00  0.00
  YS02001929YS02001926    1.00   0.00  0.13  0.00  0.87  0.00  0.00  0.00  0.79  0.00
  YS02006553YS02006556    1.00   0.01  0.00  0.00  0.99  0.00  0.00  0.00  0.03  0.00
  YS02006556YS02006558    1.00   0.00  0.00  0.00  1.00  0.00  0.00  0.00  0.00  0.00
  YS02006558YS02006561    1.00   0.16  0.00  0.00  0.09  0.75  0.00  0.00  0.16  0.00
  YS02006561YS02001783    1.00   0.16  0.00  0.00  0.13  0.71  0.00  0.00  0.64  0.00
  YS02163301YS02001633    1.00   0.00  0.14  0.00  0.86  0.00  0.00  0.00  0.00  0.00
  YS02163601YS02164001    1.00   0.00  0.08  0.00  0.92  0.00  0.00  0.00  0.00  0.00
  YS02164001YS02001641    1.00   0.01  0.07  0.00  0.92  0.00  0.00  0.00  0.05  0.00
  
  
  *************************
  Conduit Surcharge Summary
  *************************
  
  ----------------------------------------------------------------------------
                                                           Hours        Hours 
                         --------- Hours Full --------   Above Full   Capacity
  Conduit                Both Ends  Upstream  Dnstream   Normal Flow   Limited
  ----------------------------------------------------------------------------
  WS02003072WS02003073        0.01      0.01      0.01      1.41         0.01
  WS02004403WS02004404        0.01      0.01      0.01      0.01         0.01
  WS02004404WS02004405        0.01      0.01      0.01      4.59         0.01
  WS02004405WS02004406        0.01      0.01      0.01      0.88         0.01
  WS02006109WS02006110        0.94      0.94      2.53      1.06         0.01
  WS02006110WS02006113        0.01      0.01      2.49      0.01         0.01
  WS02006111WS02006112        0.01      0.01      3.16      0.01         0.01
  WS02006112WS02006115        0.01      0.01      1.14      0.01         0.01
  WS02006228WS02006109        2.45      2.53      2.45      3.47         2.45
  WS02006229WS02006228        2.45      2.45      2.45      2.89         2.44
  WS02006230WS02006229        2.63      2.81      2.63      5.04         2.63
  WS02006231WS02006230        0.95      0.95      1.13      4.79         0.01
  WS02006232WS02006231        1.08      1.08      2.54      1.15         0.01
  WS02006234WS02006232        2.40      2.41      2.54      1.14         1.12
  WS02006235WS02006234        1.34      1.35      2.42      4.72         0.02
  WS02006238WS02006235        2.44      2.44      2.55      0.01         0.01
  WS02006239WS02006238        2.48      2.53      2.48      2.74         2.28
  WS02006240WS02006239        2.44      2.48      2.44      2.72         2.12
  WS02006242WS02006240        2.47      2.47      2.62      2.97         0.01
  WS02006243WS02006242        2.48      2.48      2.56      0.01         0.05
  WS02006245WS02006243        2.47      2.48      2.48      1.77         1.63
  WS02006247WS02006245        2.47      2.50      2.47      4.49         2.46
  WS02006248WS02006247        2.47      2.47      2.49      0.01         0.05
  WS02006249WS02006248        2.46      2.46      2.47      4.47         0.01
  WS02006251WS02006249        2.47      2.48      2.47      2.84         2.40
  WS02006252WS02006251        2.89      2.89      2.90      2.90         0.01
  WS02006256WS02006235        4.71      4.75      6.35      1.42         0.01
  YS02001580YS02001583        1.00      1.00      1.09      0.01         0.01
  YS02001583YS02001586        1.01      1.01      1.25      0.01         0.01
  YS02001586YS02001590        1.25      1.25      1.35      0.01         0.01
  YS02001590YS02001593        1.35      1.35      1.37      1.42         0.01
  YS02001593YS02001596        1.36      1.36      1.51      0.01         0.01
  YS02001596YS02001600        1.56      1.56      1.63      0.01         0.01
  YS02001600YS02001601        1.67      1.67      1.84      0.01         0.01
  YS02001601YS02001602        1.78      1.78      1.87      1.62         0.01
  YS02001602YS02001605        1.75      1.75      1.78      2.49         0.01
  YS02001605YS02001607        1.72      1.75      1.73      1.79         1.71
  YS02001607YS02001610        1.39      1.39      1.42      0.01         0.01
  YS02001610YS02001613        1.38      1.38      1.42      0.01         0.01
  YS02001613YS02001616        1.33      1.33      1.38      0.01         0.01
  YS02001616YS02001619        1.31      1.31      1.33      0.16         0.18
  YS02001619YS02001622        1.31      1.31      1.31      1.25         1.14
  YS02001622YS02001625        1.31      1.31      1.53      0.01         0.01
  YS02001625YS02001629        1.24      1.24      1.53      0.01         0.01
  YS02001629YS02163301        1.54      1.54      1.55      0.03         0.09
  YS02001633YS02163601        1.56      1.56      1.59      0.12         0.18
  YS02001641YS02001644        1.52      1.53      1.52      1.89         1.50
  YS02001644YS02001647        1.29      1.29      1.52      0.04         0.01
  YS02001647YS02001649        1.29      1.29      1.47      0.01         0.01
  YS02001649YS02001757        1.46      1.47      1.53      0.05         0.03
  YS02001652YS02001649        1.25      1.25      1.47      0.01         0.01
  YS02001655YS02001652        0.96      0.96      1.21      0.01         0.01
  YS02001658YS02001655        0.48      0.48      0.96      0.01         0.01
  YS02001661YS02001658        0.18      0.18      0.48      0.01         0.01
  YS02001664YS02001661        0.01      0.01      0.23      0.01         0.01
  YS02001745YS02001748        0.01      0.01      0.37      0.01         0.01
  YS02001748YS02001751        0.44      0.44      0.75      0.01         0.01
  YS02001751YS02001754        0.75      0.75      1.12      0.01         0.01
  YS02001754YS02001757        1.17      1.17      1.53      0.01         0.01
  YS02001757CaochengTiaoxuchi        1.48      1.53      2.42      0.51         0.44
  YS02001759YS02001757        1.45      1.45      1.53      0.13         0.11
  YS02001762YS02001759        1.41      1.41      1.45      0.01         0.02
  YS02001765YS02001762        1.36      1.36      1.41      0.01         0.01
  YS02001767YS02001765        1.31      1.31      1.36      0.01         0.02
  YS02001770YS02001767        1.31      1.31      1.31      0.82         0.77
  YS02001774YS02001770        1.27      1.27      1.39      0.01         0.01
  YS02001779YS02001774        1.09      1.09      1.39      0.01         0.01
  YS02001783YS02001784        0.79      0.83      0.79      1.01         0.79
  YS02001784YS02001785        0.67      0.79      0.67      1.41         0.67
  YS02001786YS02001788        0.01      0.67      0.01      1.19         0.01
  YS02001790YS02001791        0.01      0.01      0.01      0.78         0.01
  YS02001793JiankangQianchi        0.01      0.01      7.45      0.01         0.01
  YS02001882YS02001884        0.75      0.75      0.77      0.01         0.01
  YS02001884YS02001887        0.80      0.80      0.81      0.01         0.01
  YS02001887YS02001890        0.83      0.83      0.84      0.25         0.01
  YS02001890YS02001895        0.74      0.74      0.87      0.01         0.01
  YS02001895YS02001898        0.73      0.73      0.74      0.01         0.01
  YS02001898YS02001901        0.74      0.74      0.79      0.01         0.01
  YS02001901YS02001904        0.78      0.78      0.79      0.01         0.01
  YS02001904YS02001907        0.78      0.78      1.15      0.01         0.01
  YS02001907YS02006553        1.42      1.42      1.53      0.01         0.01
  YS02001910YS02001907        0.87      0.87      1.09      0.14         0.14
  YS02001915YS02001910        0.75      0.75      0.87      0.01         0.01
  YS02001918YS02001915        0.65      0.65      0.75      0.01         0.01
  YS02001920YS02001918        0.65      0.65      0.66      0.01         0.01
  YS02001923YS02001920        0.59      0.59      0.66      0.01         0.01
  YS02001926YS02001923        0.27      0.27      0.30      0.04         0.01
  YS02001929YS02001926        0.16      0.16      0.30      0.01         0.01
  YS02006553YS02006556        0.97      0.97      1.14      0.01         0.01
  YS02006556YS02006558        1.04      1.04      1.19      0.01         0.01
  YS02006558YS02006561        0.69      0.96      0.69      1.33         0.69
  YS02006561YS02001783        0.61      0.61      0.83      0.01         0.01
  YS02163301YS02001633        1.55      1.55      1.57      0.01         0.01
  YS02163601YS02164001        1.53      1.53      1.59      0.04         0.01
  YS02164001YS02001641        1.53      1.53      1.53      0.93         0.89
  
  
  ***************
  Pumping Summary
  ***************
  
  ---------------------------------------------------------------------------------------------------------
                                                  Min       Avg       Max     Total     Power    % Time Off
                        Percent   Number of      Flow      Flow      Flow    Volume     Usage    Pump Curve
  Pump                 Utilized   Start-Ups       LPS       LPS       LPS  10^6 ltr     Kw-hr    Low   High
  ---------------------------------------------------------------------------------------------------------
  CC-R1                   25.00           3      0.00    683.00    683.00     4.918     94.94    0.0    7.7
  CC-R2                   21.99           3      0.00    683.00    683.00     4.326     84.06    0.0    8.6
  CC-S1                   52.27           8      0.00    200.00    200.00     3.011     16.85    0.0    0.0
  CC-S2                   40.46          11      0.00    200.00    200.00     2.330     12.76    0.0    0.0
  JK-R1                   11.06          16      0.00   1000.00   1000.00     3.187     36.49    0.0    0.0
  JK-R2                    2.37           6      0.00   1000.00   1000.00     0.684      6.45    0.0    0.0
  JK-S                    17.72          16      0.00    300.00    300.00     1.531     22.21    0.0    0.0
  

  Analysis begun on:  Mon Apr 14 21:00:15 2025
  Analysis ended on:  Mon Apr 14 21:00:17 2025
  Total elapsed time: 00:00:02