
  EPA STORM WATER MANAGEMENT MODEL - VERSION 5.2 (Build 5.2.4)
  PYSWMM TOOLKIT API - VERSION v1.0 (2023-11-27)
  ------------------------------------------------------------

  WARNING 04: minimum elevation drop used for Conduit WS02004404WS02004405
  WARNING 03: negative offset ignored for Link YS02001904YS02001907
  
  ****************
  Analysis Options
  ****************
  Flow Units ............... LPS
  Process Models:
    Rainfall/Runoff ........ YES
    RDII ................... NO
    Snowmelt ............... NO
    Groundwater ............ NO
    Flow Routing ........... YES
    Ponding Allowed ........ NO
    Water Quality .......... NO
  Infiltration Method ...... HORTON
  Flow Routing Method ...... DYNWAVE
  Surcharge Method ......... EXTRAN
  Starting Date ............ 08/28/2015 08:00:00
  Ending Date .............. 08/28/2015 16:00:00
  Antecedent Dry Days ...... 8.0
  Report Time Step ......... 00:01:00
  Wet Time Step ............ 00:01:00
  Dry Time Step ............ 00:01:00
  Routing Time Step ........ 30.00 sec
  Variable Time Step ....... YES
  Maximum Trials ........... 8
  Number of Threads ........ 4
  Head Tolerance ........... 0.001500 m
  
  
  **************************        Volume         Depth
  Runoff Quantity Continuity     hectare-m            mm
  **************************     ---------       -------
  Total Precipitation ......         2.069        62.383
  Evaporation Loss .........         0.000         0.000
  Infiltration Loss ........         0.102         3.064
  Surface Runoff ...........         1.935        58.335
  Final Storage ............         0.033         0.996
  Continuity Error (%) .....        -0.019
  
  
  **************************        Volume        Volume
  Flow Routing Continuity        hectare-m      10^6 ltr
  **************************     ---------     ---------
  Dry Weather Inflow .......         0.025         0.251
  Wet Weather Inflow .......         1.935        19.348
  Groundwater Inflow .......         0.000         0.000
  RDII Inflow ..............         0.000         0.000
  External Inflow ..........         0.083         0.834
  External Outflow .........         1.519        15.191
  Flooding Loss ............         0.573         5.731
  Evaporation Loss .........         0.000         0.000
  Exfiltration Loss ........         0.000         0.000
  Initial Stored Volume ....         0.243         2.431
  Final Stored Volume ......         0.199         1.985
  Continuity Error (%) .....        -0.190
  
  
  *************************
  Highest Continuity Errors
  *************************
  Node YS02001884 (5.07%)
  Node YS02001583 (-4.55%)
  
  
  ***************************
  Time-Step Critical Elements
  ***************************
  Link WS02006252WS02006251 (57.03%)
  Link WS02006238WS02006235 (11.06%)
  Link WS02004404WS02004405 (10.30%)
  Link YS02001791YS02001793 (6.63%)
  Link WS02006235WS02006234 (5.65%)
  
  
  ********************************
  Highest Flow Instability Indexes
  ********************************
  Link WS02006113WS02006111 (54)
  Link WS02006111WS02006112 (24)
  Link WS02004404WS02004405 (18)
  Link WS02004403WS02004404 (15)
  Link WS02004405WS02004406 (15)
  
  
  *********************************
  Most Frequent Nonconverging Nodes
  *********************************
  Node CC-1 (7.49%)
  Node CC-2 (7.49%)
  Node JK-1 (7.49%)
  Node JK-2 (7.49%)
  Node WSC (7.49%)
  
  
  *************************
  Routing Time Step Summary
  *************************
  Minimum Time Step           :     0.03 sec
  Average Time Step           :     1.68 sec
  Maximum Time Step           :     7.04 sec
  % of Time in Steady State   :     0.00
  Average Iterations per Step :     2.72
  % of Steps Not Converging   :     7.49
  Time Step Frequencies       :
     30.000 - 13.228 sec      :     0.00 %
     13.228 -  5.833 sec      :     6.73 %
      5.833 -  2.572 sec      :    14.39 %
      2.572 -  1.134 sec      :    16.66 %
      1.134 -  0.500 sec      :    62.22 %
  
  
  ***************************
  Subcatchment Runoff Summary
  ***************************
  
  ------------------------------------------------------------------------------------------------------------------------------
                            Total      Total      Total      Total     Imperv       Perv      Total       Total     Peak  Runoff
                           Precip      Runon       Evap      Infil     Runoff     Runoff     Runoff      Runoff   Runoff   Coeff
  Subcatchment                 mm         mm         mm         mm         mm         mm         mm    10^6 ltr      LPS
  ------------------------------------------------------------------------------------------------------------------------------
  sub60                     62.38       0.00       0.00       1.82      53.69       5.67      59.36        0.78   526.81   0.952
  sub61                     62.38       0.00       0.00       2.64      50.65       7.97      58.61        1.08   732.74   0.940
  sub62                     62.38       0.00       0.00       1.21      56.10       3.78      59.89        1.64  1035.10   0.960
  sub63                     62.38       0.00       0.00       4.92      43.32      13.17      56.50        1.28   838.40   0.906
  sub64                     62.38       0.00       0.00       2.48      51.82       6.88      58.70        1.41   851.49   0.941
  sub65                     62.38       0.00       0.00       2.15      53.02       5.96      58.98        1.62   951.87   0.945
  sub66                     62.38       0.00       0.00       6.13      43.21      11.96      55.17        2.57  1290.88   0.884
  sub67                     62.38       0.00       0.00       1.16      56.15       3.83      59.98        1.12   782.80   0.961
  sub68                     62.38       0.00       0.00       2.19      52.46       6.55      59.01        1.62  1061.45   0.946
  sub69                     62.38       0.00       0.00       1.98      52.91       7.38      60.29        2.23  1265.00   0.967
  sub70                     62.38       0.00       0.00       6.63      41.00      14.58      55.58        1.61   725.81   0.891
  sub71                     62.38       0.00       0.00       1.25      56.06       3.75      59.81        1.56   918.33   0.959
  sub72                     62.38       0.00       0.00       1.11      56.61       3.26      59.87        0.82   450.60   0.960
  
  
  ******************
  Node Depth Summary
  ******************
  
  ---------------------------------------------------------------------------------
                                 Average  Maximum  Maximum  Time of Max    Reported
                                   Depth    Depth      HGL   Occurrence   Max Depth
  Node                 Type       Meters   Meters   Meters  days hr:min      Meters
  ---------------------------------------------------------------------------------
  WS02003060           JUNCTION     0.25     0.38     5.32     0  02:33        0.38
  WS02003066           JUNCTION     0.20     0.30     5.85     0  02:33        0.30
  WS02003067           JUNCTION     0.52     0.70     6.02     0  02:33        0.70
  WS02003069           JUNCTION     0.27     0.43     5.01     0  02:34        0.43
  WS02003072           JUNCTION     0.34     0.50     4.87     0  02:33        0.50
  WS02003073           JUNCTION     0.19     0.30     4.36     0  02:34        0.30
  WS02004401           JUNCTION     0.62     0.87     6.87     0  02:30        0.87
  WS02004402           JUNCTION     0.65     0.90     6.86     0  02:30        0.90
  WS02004403           JUNCTION     0.68     0.92     6.85     0  02:29        0.92
  WS02004404           JUNCTION     0.75     1.05     6.90     0  02:45        1.00
  WS02004405           JUNCTION     0.73     0.97     6.82     0  02:31        0.96
  WS02004406           JUNCTION     0.75     0.96     6.79     0  02:31        0.96
  WS02004407           JUNCTION     0.19     0.30     6.61     0  02:31        0.30
  WS02004409           JUNCTION     0.41     0.67     6.44     0  02:31        0.67
  WS02004410           JUNCTION     0.44     0.68     6.40     0  02:32        0.68
  WS02004411           JUNCTION     0.46     0.69     6.37     0  02:32        0.69
  WS02004412           JUNCTION     0.48     0.70     6.34     0  02:32        0.70
  WS02004413           JUNCTION     0.64     0.86     6.33     0  02:32        0.86
  WS02006109           JUNCTION     0.67     1.19     7.81     0  02:52        1.01
  WS02006110           JUNCTION     0.67     1.32     7.90     0  02:52        0.94
  WS02006111           JUNCTION     0.19     0.29     6.99     0  02:44        0.29
  WS02006112           JUNCTION     0.78     1.08     6.96     0  02:39        1.07
  WS02006113           JUNCTION     0.29     0.46     7.35     0  03:17        0.46
  WS02006115           JUNCTION     0.50     0.77     6.91     0  02:27        0.77
  WS02006116           JUNCTION     0.59     0.85     6.89     0  02:30        0.85
  WS02006228           JUNCTION     0.66     1.19     7.84     0  02:52        1.14
  WS02006229           JUNCTION     0.63     1.18     7.87     0  02:39        1.18
  WS02006230           JUNCTION     0.62     1.35     8.10     0  02:39        1.35
  WS02006231           JUNCTION     0.43     1.27     8.39     0  02:20        1.17
  WS02006232           JUNCTION     0.57     1.33     8.37     0  02:30        1.24
  WS02006234           JUNCTION     0.49     1.41     8.57     0  02:30        1.20
  WS02006235           JUNCTION     0.52     1.50     8.66     0  02:30        1.29
  WS02006238           JUNCTION     0.55     1.54     8.69     0  02:30        1.32
  WS02006239           JUNCTION     0.52     1.58     8.79     0  02:09        1.30
  WS02006240           JUNCTION     0.48     1.50     8.79     0  02:14        1.25
  WS02006242           JUNCTION     0.55     1.51     8.78     0  02:14        1.32
  WS02006243           JUNCTION     0.45     1.35     8.77     0  02:14        1.21
  WS02006245           JUNCTION     0.45     1.28     8.77     0  02:20        1.17
  WS02006247           JUNCTION     0.48     1.47     8.97     0  02:10        1.47
  WS02006248           JUNCTION     0.43     1.10     8.69     0  02:14        1.09
  WS02006249           JUNCTION     0.47     1.09     8.69     0  02:10        1.09
  WS02006251           JUNCTION     0.46     1.26     8.93     0  03:15        1.13
  WS02006252           JUNCTION     0.35     1.50     9.74     0  00:00        0.69
  WS02006256           JUNCTION     0.94     2.35     9.28     0  00:00        2.35
  WSF200               JUNCTION     0.18     0.29     5.52     0  02:33        0.29
  YS02001580           JUNCTION     0.06     1.05     9.59     0  02:12        1.05
  YS02001583           JUNCTION     0.10     1.06     9.55     0  02:12        1.06
  YS02001586           JUNCTION     0.15     1.13     9.30     0  02:12        1.13
  YS02001590           JUNCTION     0.24     1.40     9.26     0  02:12        1.40
  YS02001593           JUNCTION     0.17     1.46     9.32     0  02:12        1.46
  YS02001596           JUNCTION     0.24     1.80     9.22     0  02:12        1.80
  YS02001600           JUNCTION     0.29     1.87     9.00     0  02:12        1.87
  YS02001601           JUNCTION     0.48     2.06     8.90     0  02:11        2.06
  YS02001602           JUNCTION     0.40     1.87     8.77     0  02:15        1.87
  YS02001605           JUNCTION     0.37     1.78     8.68     0  02:21        1.77
  YS02001607           JUNCTION     0.37     1.68     8.53     0  02:30        1.68
  YS02001610           JUNCTION     0.42     1.68     8.48     0  02:15        1.68
  YS02001613           JUNCTION     0.38     1.67     8.51     0  02:25        1.67
  YS02001616           JUNCTION     0.31     1.61     8.52     0  02:25        1.61
  YS02001619           JUNCTION     0.28     1.61     8.54     0  02:25        1.61
  YS02001622           JUNCTION     0.27     1.59     8.50     0  02:25        1.59
  YS02001625           JUNCTION     0.55     1.78     8.38     0  02:15        1.78
  YS02001629           JUNCTION     0.38     1.85     8.40     0  02:17        1.85
  YS02001633           JUNCTION     0.47     2.04     8.49     0  02:25        2.04
  YS02001641           JUNCTION     0.46     1.95     8.39     0  02:25        1.95
  YS02001644           JUNCTION     0.46     1.92     8.35     0  02:18        1.92
  YS02001647           JUNCTION     0.25     1.76     8.37     0  02:23        1.73
  YS02001649           JUNCTION     0.28     1.98     8.37     0  02:23        1.94
  YS02001652           JUNCTION     0.18     1.83     8.43     0  02:23        1.78
  YS02001655           JUNCTION     0.14     1.64     8.49     0  02:23        1.58
  YS02001658           JUNCTION     0.10     1.42     8.56     0  02:18        1.38
  YS02001661           JUNCTION     0.14     1.23     8.64     0  02:23        1.23
  YS02001664           JUNCTION     0.04     0.54     8.46     0  02:24        0.53
  YS02001745           JUNCTION     0.05     0.81     8.33     0  02:24        0.81
  YS02001748           JUNCTION     0.10     1.36     8.44     0  02:19        1.24
  YS02001751           JUNCTION     0.12     1.44     8.32     0  02:24        1.44
  YS02001754           JUNCTION     0.16     1.69     8.30     0  02:25        1.69
  YS02001757           JUNCTION     0.30     2.02     8.29     0  02:24        2.00
  YS02001759           JUNCTION     0.24     2.00     8.37     0  02:24        1.98
  YS02001762           JUNCTION     0.23     1.98     8.38     0  02:30        1.95
  YS02001765           JUNCTION     0.22     1.96     8.41     0  02:30        1.91
  YS02001767           JUNCTION     0.22     1.94     8.43     0  02:30        1.89
  YS02001770           JUNCTION     0.23     1.95     8.44     0  02:25        1.95
  YS02001774           JUNCTION     0.30     1.99     8.42     0  02:30        1.98
  YS02001779           JUNCTION     0.14     1.68     8.37     0  02:16        1.68
  YS02001783           JUNCTION     0.20     1.27     7.41     0  02:30        1.27
  YS02001784           JUNCTION     0.21     1.14     7.21     0  02:30        1.13
  YS02001786           JUNCTION     0.18     0.89     6.92     0  02:30        0.87
  YS02001788           JUNCTION     0.13     0.62     6.60     0  02:23        0.62
  YS02001790           JUNCTION     0.16     0.73     6.37     0  02:25        0.72
  YS02001791           JUNCTION     0.10     0.44     5.91     0  02:23        0.43
  YS02001793           JUNCTION     0.05     0.31     5.14     0  02:25        0.29
  YS02001882           JUNCTION     0.26     1.65     8.37     0  02:30        1.65
  YS02001884           JUNCTION     0.35     1.75     8.37     0  02:25        1.75
  YS02001887           JUNCTION     0.43     1.84     8.37     0  02:25        1.84
  YS02001890           JUNCTION     0.46     1.81     8.32     0  02:17        1.81
  YS02001895           JUNCTION     0.23     1.58     8.32     0  02:30        1.57
  YS02001898           JUNCTION     0.24     1.59     8.32     0  02:30        1.57
  YS02001901           JUNCTION     0.35     1.69     8.30     0  02:30        1.67
  YS02001904           JUNCTION     0.33     1.65     8.28     0  02:17        1.64
  YS02001907           JUNCTION     0.66     1.96     8.25     0  02:17        1.96
  YS02001910           JUNCTION     0.45     1.97     8.47     0  02:18        1.91
  YS02001915           JUNCTION     0.26     1.91     8.63     0  02:18        1.85
  YS02001918           JUNCTION     0.13     1.81     8.88     0  02:18        1.50
  YS02001920           JUNCTION     0.21     2.11     9.11     0  02:18        1.52
  YS02001923           JUNCTION     0.10     2.03     9.29     0  02:18        1.27
  YS02001926           JUNCTION     0.13     1.90     9.35     0  02:18        1.10
  YS02001929           JUNCTION     0.07     1.76     9.45     0  02:18        0.86
  YS02006553           JUNCTION     0.66     1.98     8.27     0  02:23        1.98
  YS02006556           JUNCTION     0.64     1.97     8.28     0  02:25        1.97
  YS02006558           JUNCTION     0.68     2.02     8.28     0  02:25        2.02
  YS02006561           JUNCTION     0.12     0.92     7.58     0  02:30        0.89
  YS02163301           JUNCTION     0.41     1.94     8.46     0  02:25        1.94
  YS02163601           JUNCTION     0.51     2.05     8.45     0  02:25        2.05
  YS02164001           JUNCTION     0.44     1.95     8.41     0  02:30        1.95
  CC-1                 OUTFALL      0.00     0.00     0.00     0  00:00        0.00
  CC-2                 OUTFALL      0.00     0.00     0.00     0  00:00        0.00
  JK-1                 OUTFALL      0.00     0.00     0.00     0  00:00        0.00
  JK-2                 OUTFALL      0.00     0.00     0.00     0  00:00        0.00
  WSC                  OUTFALL      0.19     0.30     0.97     0  02:35        0.30
  CC-storage           STORAGE      0.85     1.74     7.24     0  02:45        1.74
  JK-storage           STORAGE      3.14     4.24     5.04     0  02:20        4.19
  
  
  *******************
  Node Inflow Summary
  *******************
  
  -------------------------------------------------------------------------------------------------
                                  Maximum  Maximum                  Lateral       Total        Flow
                                  Lateral    Total  Time of Max      Inflow      Inflow     Balance
                                   Inflow   Inflow   Occurrence      Volume      Volume       Error
  Node                 Type           LPS      LPS  days hr:min    10^6 ltr    10^6 ltr     Percent
  -------------------------------------------------------------------------------------------------
  WS02003060           JUNCTION     16.53   554.19     0  02:33       0.476        5.85       0.040
  WS02003066           JUNCTION      0.00   537.35     0  02:33           0        5.38       0.029
  WS02003067           JUNCTION      0.00   537.30     0  02:32           0        5.38       0.083
  WS02003069           JUNCTION      0.32   554.05     0  02:34     0.00922        5.86       0.064
  WS02003072           JUNCTION      0.00   553.47     0  02:32           0        5.85       0.110
  WS02003073           JUNCTION      1.82   555.22     0  02:33      0.0524         5.9       0.088
  WS02004401           JUNCTION      0.00   539.54     0  02:33           0        5.49       0.219
  WS02004402           JUNCTION      0.00   539.65     0  02:28           0        5.48       0.218
  WS02004403           JUNCTION      0.00   540.87     0  02:32           0        5.47       0.209
  WS02004404           JUNCTION      0.16   560.99     0  02:45     0.00467        5.46       0.218
  WS02004405           JUNCTION      0.04   608.42     0  02:30      0.0011        5.45       0.158
  WS02004406           JUNCTION      0.00   542.34     0  02:35           0        5.44       0.422
  WS02004407           JUNCTION      0.00   539.06     0  02:31           0        5.42       0.043
  WS02004409           JUNCTION      0.00   538.70     0  02:31           0        5.42       0.077
  WS02004410           JUNCTION      0.00   538.14     0  02:31           0        5.42       0.099
  WS02004411           JUNCTION      0.00   537.97     0  02:32           0        5.41       0.118
  WS02004412           JUNCTION      0.00   537.74     0  02:32           0         5.4       0.155
  WS02004413           JUNCTION      0.00   537.74     0  02:32           0         5.4       0.270
  WS02006109           JUNCTION      1.23   555.28     0  02:39      0.0354        5.56       0.240
  WS02006110           JUNCTION      0.00   556.43     0  02:39           0        5.55       0.167
  WS02006111           JUNCTION      0.00   562.26     0  02:49           0        5.53       0.033
  WS02006112           JUNCTION      0.00   543.01     0  02:55           0        5.53       0.357
  WS02006113           JUNCTION      0.00   568.09     0  02:52           0        5.54       0.061
  WS02006115           JUNCTION      0.00   549.75     0  03:16           0        5.51       0.161
  WS02006116           JUNCTION      0.00   539.04     0  02:33           0         5.5       0.140
  WS02006228           JUNCTION      0.00   552.75     0  02:39           0        5.53       0.112
  WS02006229           JUNCTION      0.00   553.48     0  02:39           0        5.54       0.109
  WS02006230           JUNCTION     10.28   590.00     0  02:30       0.296        5.54       0.099
  WS02006231           JUNCTION      0.00   574.82     0  03:04           0        5.25       0.014
  WS02006232           JUNCTION      0.00   573.85     0  03:04           0        5.26       0.250
  WS02006234           JUNCTION      0.00   569.98     0  03:04           0        5.25      -0.144
  WS02006235           JUNCTION      0.00   562.89     0  03:04           0        5.34       0.211
  WS02006238           JUNCTION      0.00   425.50     0  02:50           0        4.51      -0.070
  WS02006239           JUNCTION      0.00   423.10     0  02:50           0        4.47      -0.093
  WS02006240           JUNCTION      0.00   419.71     0  03:10           0        4.43      -0.022
  WS02006242           JUNCTION      0.00   420.27     0  02:11           0         4.4      -0.002
  WS02006243           JUNCTION      0.00   421.05     0  02:11           0        4.38      -0.042
  WS02006245           JUNCTION      0.00   420.66     0  02:11           0        4.38       0.169
  WS02006247           JUNCTION      0.00   420.26     0  02:11           0        4.37      -0.017
  WS02006248           JUNCTION      0.00   420.01     0  02:11           0        4.37      -0.015
  WS02006249           JUNCTION      0.00   459.02     0  00:00           0        4.56       0.208
  WS02006251           JUNCTION      0.08   405.16     0  03:15     0.00222        4.56       0.008
  WS02006252           JUNCTION      0.00   400.00     0  00:00           0        4.55      -0.105
  WS02006256           JUNCTION      0.00   300.00     0  00:00           0        1.24      -0.845
  WSF200               JUNCTION      0.00   537.42     0  02:33           0        5.37       0.011
  YS02001580           JUNCTION      0.00    71.93     0  02:11           0     0.00414       0.475
  YS02001583           JUNCTION      0.00   122.35     0  02:11           0      0.0154      -4.349
  YS02001586           JUNCTION    725.81   726.03     0  02:26        1.61        1.62       0.061
  YS02001590           JUNCTION      0.00   318.02     0  02:34           0         1.3      -0.027
  YS02001593           JUNCTION      0.00   318.06     0  02:36           0         1.3       0.002
  YS02001596           JUNCTION      0.00   318.09     0  02:32           0         1.3      -0.011
  YS02001600           JUNCTION      0.00   318.07     0  02:36           0         1.3       0.017
  YS02001601           JUNCTION   1265.00  1582.50     0  02:26        2.23        3.53       0.029
  YS02001602           JUNCTION      0.00   493.89     0  02:11           0        2.25       0.023
  YS02001605           JUNCTION      0.00   493.42     0  02:11           0        2.14       0.030
  YS02001607           JUNCTION      0.00   493.82     0  02:11           0        2.14       0.091
  YS02001610           JUNCTION      0.00   699.55     0  02:26           0        2.32       0.104
  YS02001613           JUNCTION      0.00   499.15     0  02:10           0        1.89       0.097
  YS02001616           JUNCTION      0.00   494.74     0  02:10           0        1.89       0.022
  YS02001619           JUNCTION   1290.88  1290.88     0  02:26        2.57        4.28       0.004
  YS02001622           JUNCTION      0.00   941.77     0  02:25           0         4.1       0.004
  YS02001625           JUNCTION      0.00  1339.40     0  02:26           0        4.31       0.223
  YS02001629           JUNCTION      0.00   909.71     0  02:15           0        3.35       0.020
  YS02001633           JUNCTION    952.07  1293.18     0  02:15        1.63        4.77       0.075
  YS02001641           JUNCTION      0.00  1289.46     0  02:15           0        4.56       0.064
  YS02001644           JUNCTION    851.53  1647.07     0  02:16        1.41        5.96       0.057
  YS02001647           JUNCTION      0.00  1647.03     0  02:16           0        5.58       0.011
  YS02001649           JUNCTION      0.00  1820.23     0  02:17           0        6.87       0.006
  YS02001652           JUNCTION      0.00   859.38     0  02:25           0        1.29      -0.084
  YS02001655           JUNCTION      0.15   859.06     0  02:25     0.00443        1.29       0.039
  YS02001658           JUNCTION      0.00   857.76     0  02:25           0        1.28      -0.039
  YS02001661           JUNCTION      0.00   857.71     0  02:25           0        1.28       0.015
  YS02001664           JUNCTION    838.40   838.40     0  02:25        1.28        1.28      -0.008
  YS02001745           JUNCTION    526.81   526.81     0  02:25        0.78        0.78       0.161
  YS02001748           JUNCTION      0.04   531.72     0  02:25      0.0013       0.782      -0.262
  YS02001751           JUNCTION      0.01   531.28     0  02:25    0.000317       0.787       0.015
  YS02001754           JUNCTION      0.26   531.74     0  02:25     0.00749       0.799      -0.141
  YS02001757           JUNCTION      0.00  3048.65     0  02:23           0        10.2       0.008
  YS02001759           JUNCTION    732.78  1262.69     0  02:23        1.08        2.57      -0.006
  YS02001762           JUNCTION      0.00   700.69     0  02:21           0         1.5       0.003
  YS02001765           JUNCTION      0.00   700.29     0  02:21           0         1.5       0.008
  YS02001767           JUNCTION      0.54   700.37     0  02:21      0.0154         1.5       0.012
  YS02001770           JUNCTION   1035.25  1035.25     0  02:25        1.65        1.69      -0.005
  YS02001774           JUNCTION      0.00   522.29     0  02:25           0       0.228       0.539
  YS02001779           JUNCTION      0.01   523.31     0  02:25    0.000144       0.183      -0.410
  YS02001783           JUNCTION      0.00  1164.37     0  02:24           0        3.99       0.006
  YS02001784           JUNCTION      1.06  1165.68     0  02:24      0.0305        4.02       0.014
  YS02001786           JUNCTION      0.06  1164.99     0  02:24     0.00162        4.02       0.018
  YS02001788           JUNCTION      0.07  1165.38     0  02:24     0.00204        4.02       0.007
  YS02001790           JUNCTION      0.15  1174.39     0  02:23     0.00446        4.02       0.012
  YS02001791           JUNCTION      0.00  1297.79     0  02:25           0        4.02      -0.014
  YS02001793           JUNCTION      0.00  1249.73     0  02:21           0        4.02       0.002
  YS02001882           JUNCTION      0.00    36.81     0  02:14           0      0.0129       5.455
  YS02001884           JUNCTION      0.00    42.96     0  02:13           0      0.0489       5.341
  YS02001887           JUNCTION    783.25   787.89     0  02:25        1.13        1.16       0.387
  YS02001890           JUNCTION      0.00   788.04     0  02:25           0        1.12       0.461
  YS02001895           JUNCTION      0.00   517.19     0  02:24           0        1.04       0.147
  YS02001898           JUNCTION      0.00   517.48     0  02:25           0        1.04       0.019
  YS02001901           JUNCTION      0.00   517.80     0  02:26           0        1.05       0.310
  YS02001904           JUNCTION      0.00   517.36     0  02:25           0        1.05       0.278
  YS02001907           JUNCTION      0.00  1899.54     0  02:25           0        3.51       0.530
  YS02001910           JUNCTION      0.00  1382.29     0  02:25           0        2.47       0.293
  YS02001915           JUNCTION    918.34  1381.93     0  02:25        1.56         2.5       0.060
  YS02001918           JUNCTION      0.00   464.96     0  02:25           0       0.951       0.025
  YS02001920           JUNCTION      2.87   463.48     0  02:25      0.0827       0.938       0.100
  YS02001923           JUNCTION      0.04   463.15     0  02:25     0.00109       0.843      -0.101
  YS02001926           JUNCTION      0.05   462.75     0  02:25      0.0015        0.83      -0.035
  YS02001929           JUNCTION    450.60   450.60     0  02:26       0.823       0.823      -0.023
  YS02006553           JUNCTION      0.00   800.90     0  02:38           0        2.39       0.511
  YS02006556           JUNCTION      0.00   800.93     0  02:38           0        2.39       0.347
  YS02006558           JUNCTION   1062.33  1164.76     0  02:24        1.65        4.02       0.087
  YS02006561           JUNCTION      0.00  1163.95     0  02:24           0        3.99      -0.000
  YS02163301           JUNCTION      0.00   910.11     0  02:15           0        3.35       0.045
  YS02163601           JUNCTION      0.11  1292.15     0  02:15     0.00317        4.56       0.110
  YS02164001           JUNCTION      0.00  1290.94     0  02:15           0        4.56       0.052
  CC-1                 OUTFALL       0.00   683.00     0  00:00           0        3.35       0.000
  CC-2                 OUTFALL       0.00   683.00     0  00:00           0        3.16       0.000
  JK-1                 OUTFALL       0.00  1000.00     0  00:00           0        2.15       0.000
  JK-2                 OUTFALL       0.00  1000.00     0  00:00           0       0.644       0.000
  WSC                  OUTFALL       0.00   555.21     0  02:35           0        5.89       0.000
  CC-storage           STORAGE       0.00  3048.47     0  02:24           0        12.5      -0.207
  JK-storage           STORAGE       0.00  1227.62     0  02:18           0        4.17      -0.010
  
  
  **********************
  Node Surcharge Summary
  **********************
  
  Surcharging occurs when water rises above the top of the highest conduit.
  ---------------------------------------------------------------------
                                               Max. Height   Min. Depth
                                   Hours       Above Crown    Below Rim
  Node                 Type      Surcharged         Meters       Meters
  ---------------------------------------------------------------------
  WS02004404           JUNCTION        0.02          0.045        2.735
  WS02006109           JUNCTION        1.83          0.369        1.451
  WS02006110           JUNCTION        0.58          0.407        1.443
  WS02006112           JUNCTION        0.80          0.081        1.599
  WS02006228           JUNCTION        1.83          0.356        1.844
  WS02006229           JUNCTION        1.84          0.379        2.071
  WS02006230           JUNCTION        0.58          0.270        1.300
  WS02006231           JUNCTION        0.69          0.559        0.971
  WS02006232           JUNCTION        1.92          0.631        0.849
  WS02006234           JUNCTION        0.91          0.692        0.548
  WS02006235           JUNCTION        1.80          0.789        0.501
  WS02006238           JUNCTION        1.86          0.824        0.606
  WS02006239           JUNCTION        1.82          0.837        0.453
  WS02006240           JUNCTION        1.84          0.791        0.599
  WS02006242           JUNCTION        1.95          0.781        0.039
  WS02006243           JUNCTION        1.86          0.642        0.128
  WS02006245           JUNCTION        1.86          0.570        0.280
  WS02006247           JUNCTION        1.88          0.760        0.000
  WS02006248           JUNCTION        1.85          0.380        0.000
  WS02006249           JUNCTION        1.87          0.390        0.000
  WS02006251           JUNCTION        0.75          0.230        0.950
  WS02006252           JUNCTION        2.23          1.100        0.000
  WS02006256           JUNCTION        6.42          2.050        0.000
  YS02001580           JUNCTION        0.59          0.450        0.000
  YS02001583           JUNCTION        0.60          0.415        0.085
  YS02001586           JUNCTION        0.72          0.510        0.000
  YS02001590           JUNCTION        0.80          0.750        0.000
  YS02001593           JUNCTION        0.80          0.840        0.000
  YS02001596           JUNCTION        0.92          1.070        0.000
  YS02001600           JUNCTION        1.06          1.190        0.000
  YS02001601           JUNCTION        1.41          1.440        0.000
  YS02001602           JUNCTION        1.29          1.270        0.000
  YS02001605           JUNCTION        1.24          1.178        0.002
  YS02001607           JUNCTION        0.78          0.680        0.000
  YS02001610           JUNCTION        0.81          0.680        0.000
  YS02001613           JUNCTION        0.78          0.669        0.031
  YS02001616           JUNCTION        0.74          0.610        0.000
  YS02001619           JUNCTION        0.72          0.610        0.000
  YS02001622           JUNCTION        0.72          0.594        0.026
  YS02001625           JUNCTION        0.91          0.780        0.000
  YS02001629           JUNCTION        0.67          0.470        0.000
  YS02001633           JUNCTION        0.93          1.019        0.041
  YS02001641           JUNCTION        0.87          0.950        0.150
  YS02001644           JUNCTION        0.84          0.920        0.000
  YS02001647           JUNCTION        0.63          0.755        0.145
  YS02001649           JUNCTION        0.75          0.982        0.068
  YS02001652           JUNCTION        0.57          0.801        0.329
  YS02001655           JUNCTION        0.42          0.638        0.562
  YS02001658           JUNCTION        0.24          0.416        0.884
  YS02001661           JUNCTION        0.03          0.161        1.229
  YS02001748           JUNCTION        0.18          0.278        0.912
  YS02001751           JUNCTION        0.32          0.442        0.758
  YS02001754           JUNCTION        0.49          0.644        0.506
  YS02001757           JUNCTION        0.81          1.025        0.185
  YS02001759           JUNCTION        0.73          1.004        0.206
  YS02001762           JUNCTION        0.69          0.982        0.168
  YS02001765           JUNCTION        0.65          0.960        0.140
  YS02001767           JUNCTION        0.62          0.939        0.091
  YS02001770           JUNCTION        0.59          0.920        0.000
  YS02001774           JUNCTION        0.67          0.993        0.057
  YS02001779           JUNCTION        0.47          0.680        0.000
  YS02001783           JUNCTION        0.52          0.465        1.135
  YS02001784           JUNCTION        0.50          0.342        1.148
  YS02001786           JUNCTION        0.39          0.094        1.336
  YS02001882           JUNCTION        0.46          0.651        0.179
  YS02001884           JUNCTION        0.48          0.693        0.177
  YS02001887           JUNCTION        0.51          0.787        0.163
  YS02001890           JUNCTION        0.53          0.760        0.000
  YS02001895           JUNCTION        0.45          0.577        0.173
  YS02001898           JUNCTION        0.45          0.556        0.184
  YS02001901           JUNCTION        0.50          0.693        0.177
  YS02001904           JUNCTION        0.49          0.647        0.203
  YS02001907           JUNCTION        0.77          0.950        0.000
  YS02001910           JUNCTION        0.55          0.965        0.135
  YS02001915           JUNCTION        0.46          0.915        0.085
  YS02001918           JUNCTION        0.38          0.810        0.000
  YS02001920           JUNCTION        0.39          1.106        0.034
  YS02001923           JUNCTION        0.08          0.820        0.000
  YS02001926           JUNCTION        0.12          0.900        0.000
  YS02001929           JUNCTION        0.01          0.761        0.019
  YS02006553           JUNCTION        0.79          0.985        0.205
  YS02006556           JUNCTION        0.65          0.933        0.417
  YS02006558           JUNCTION        0.64          0.917        0.483
  YS02006561           JUNCTION        0.34          0.116        1.034
  YS02163301           JUNCTION        0.91          0.938        0.092
  YS02163601           JUNCTION        0.96          1.049        0.031
  YS02164001           JUNCTION        0.88          0.950        0.150
  
  
  *********************
  Node Flooding Summary
  *********************
  
  Flooding refers to all water that overflows a node, whether it ponds or not.
  --------------------------------------------------------------------------
                                                             Total   Maximum
                                 Maximum   Time of Max       Flood    Ponded
                        Hours       Rate    Occurrence      Volume     Depth
  Node                 Flooded       LPS   days hr:min    10^6 ltr    Meters
  --------------------------------------------------------------------------
  WS02006247              0.01     83.23      0  02:10       0.000     0.000
  WS02006248              0.01     22.67      0  02:20       0.000     0.000
  WS02006249              0.72     80.85      0  03:16       0.174     0.000
  WS02006252              0.01    245.63      0  00:00       0.000     0.000
  WS02006256              1.15    293.19      0  00:00       0.363     0.000
  YS02001580              0.01     53.07      0  02:12       0.000     0.000
  YS02001586              0.45    408.46      0  02:26       0.310     0.000
  YS02001590              0.01     13.23      0  02:12       0.000     0.000
  YS02001593              0.01      7.77      0  02:12       0.000     0.000
  YS02001596              0.01      1.30      0  02:12       0.000     0.000
  YS02001600              0.01      1.95      0  02:12       0.000     0.000
  YS02001601              0.65   1184.62      0  02:26       1.274     0.000
  YS02001602              0.53     62.00      0  02:21       0.110     0.000
  YS02001607              0.01      0.43      0  02:30       0.000     0.000
  YS02001610              0.48    699.23      0  02:26       0.608     0.000
  YS02001616              0.01      3.71      0  02:30       0.000     0.000
  YS02001619              0.01      0.74      0  02:25       0.000     0.000
  YS02001625              0.45   1339.29      0  02:26       1.156     0.000
  YS02001629              0.08     23.16      0  02:19       0.002     0.000
  YS02001644              0.21   1002.36      0  02:25       0.376     0.000
  YS02001770              0.01      0.49      0  02:25       0.000     0.000
  YS02001779              0.17    522.87      0  02:25       0.165     0.000
  YS02001890              0.16    271.34      0  02:25       0.071     0.000
  YS02001907              0.33   1807.47      0  02:25       1.119     0.000
  YS02001918              0.01     92.78      0  02:18       0.001     0.000
  YS02001923              0.01     83.28      0  02:18       0.000     0.000
  YS02001926              0.01     37.68      0  02:18       0.000     0.000
  
  
  **********************
  Storage Volume Summary
  **********************
  
  ------------------------------------------------------------------------------------------------
                         Average    Avg   Evap  Exfil     Maximum    Max    Time of Max    Maximum
                          Volume   Pcnt   Pcnt   Pcnt      Volume   Pcnt     Occurrence    Outflow
  Storage Unit           1000 m³   Full   Loss   Loss     1000 m³   Full    days hr:min        LPS
  ------------------------------------------------------------------------------------------------
  CC-storage               2.377   37.1    0.0    0.0       4.856   75.8       0  02:45    1783.53
  JK-storage               0.158   54.1    0.0    0.0       0.213   73.1       0  02:20    2300.00
  
  
  ***********************
  Outfall Loading Summary
  ***********************
  
  -----------------------------------------------------------
                         Flow       Avg       Max       Total
                         Freq      Flow      Flow      Volume
  Outfall Node           Pcnt       LPS       LPS    10^6 ltr
  -----------------------------------------------------------
  CC-1                  15.75    683.00    683.00       3.347
  CC-2                  14.98    683.00    683.00       3.160
  JK-1                   8.15   1000.00   1000.00       2.145
  JK-2                   2.41   1000.00   1000.00       0.644
  WSC                   99.97    267.69    555.21       5.894
  -----------------------------------------------------------
  System                28.25   3633.69   3445.09      15.191
  
  
  ********************
  Link Flow Summary
  ********************
  
  -----------------------------------------------------------------------------
                                 Maximum  Time of Max   Maximum    Max/    Max/
                                  |Flow|   Occurrence   |Veloc|    Full    Full
  Link                 Type          LPS  days hr:min     m/sec    Flow   Depth
  -----------------------------------------------------------------------------
  1                    CONDUIT    555.21     0  02:35      2.83    0.19    0.30
  WS02003060WS02003069 CONDUIT    553.73     0  02:34      1.64    0.22    0.34
  WS02003066WSF200     CONDUIT    537.42     0  02:33      2.85    0.09    0.22
  WS02003067WS02003066 CONDUIT    537.35     0  02:33      1.21    0.17    0.42
  WS02003069WS02003072 CONDUIT    553.47     0  02:32      1.37    0.27    0.39
  WS02003072WS02003073 CONDUIT    553.40     0  02:33      1.44    1.20    0.37
  WS02004401WS02004402 CONDUIT    539.65     0  02:28      0.98    0.65    0.89
  WS02004402WS02004403 CONDUIT    540.87     0  02:32      0.97    0.78    0.91
  WS02004403WS02004404 CONDUIT    560.83     0  02:45      0.92    0.41    0.96
  WS02004404WS02004405 CONDUIT    608.38     0  02:30      1.08    5.96    0.98
  WS02004405WS02004406 CONDUIT    542.34     0  02:35      0.99    1.07    0.96
  WS02004406WS02004407 CONDUIT    539.06     0  02:31      1.04    0.24    0.63
  WS02004407WS02004409 CONDUIT    538.70     0  02:31      1.48    0.19    0.48
  WS02004409WS02004410 CONDUIT    538.14     0  02:31      0.97    0.70    0.67
  WS02004410WS02004411 CONDUIT    537.97     0  02:32      0.94    0.73    0.69
  WS02004411WS02004412 CONDUIT    537.74     0  02:32      0.92    0.76    0.69
  WS02004412WS02004413 CONDUIT    537.74     0  02:32      0.82    0.36    0.78
  WS02004413WS02003067 CONDUIT    537.30     0  02:32      1.11    0.23    0.59
  WS02006109WS02006110 CONDUIT    556.43     0  02:39      1.11    1.07    1.00
  WS02006110WS02006113 CONDUIT    568.09     0  02:52      1.37    0.52    0.79
  WS02006111WS02006112 CONDUIT    543.01     0  02:55      1.81    0.26    0.67
  WS02006112WS02006115 CONDUIT    549.75     0  03:16      0.77    0.32    0.88
  WS02006113WS02006111 CONDUIT    562.26     0  02:49      2.47    0.67    0.46
  WS02006115WS02006116 CONDUIT    539.04     0  02:33      0.97    0.69    0.78
  WS02006116WS02004401 CONDUIT    539.54     0  02:33      0.98    0.74    0.86
  WS02006228WS02006109 CONDUIT    554.05     0  02:39      1.10    2.42    1.00
  WS02006229WS02006228 CONDUIT    552.75     0  02:39      1.14    1.83    1.00
  WS02006230WS02006229 CONDUIT    553.48     0  02:39      1.44   12.32    1.00
  WS02006231WS02006230 CONDUIT    579.72     0  02:30      1.58    8.79    1.00
  WS02006232WS02006231 CONDUIT    574.82     0  03:04      1.51    1.20    1.00
  WS02006234WS02006232 CONDUIT    573.85     0  03:04      1.49    1.16    1.00
  WS02006235WS02006234 CONDUIT    569.98     0  03:04      1.48    6.01    1.00
  WS02006238WS02006235 CONDUIT    427.10     0  02:50      1.45    0.95    1.00
  WS02006239WS02006238 CONDUIT    425.50     0  02:50      1.11    1.36    1.00
  WS02006240WS02006239 CONDUIT    423.10     0  02:50      1.24    1.33    1.00
  WS02006242WS02006240 CONDUIT    419.71     0  03:10      1.13    1.67    1.00
  WS02006243WS02006242 CONDUIT    420.27     0  02:11      1.40    0.90    1.00
  WS02006245WS02006243 CONDUIT    421.05     0  02:11      1.45    1.25    1.00
  WS02006247WS02006245 CONDUIT    420.66     0  02:11      1.43    3.34    1.00
  WS02006248WS02006247 CONDUIT    420.26     0  02:11      1.44    0.91    1.00
  WS02006249WS02006248 CONDUIT    420.01     0  02:11      1.36    2.30    1.00
  WS02006251WS02006249 CONDUIT    459.02     0  00:00      2.01    1.32    1.00
  WS02006252WS02006251 CONDUIT    405.08     0  03:15     24.61    1.49    1.00
  WS02006256WS02006235 CONDUIT    288.91     0  00:00      4.23    3.06    1.00
  WSF200WS02003060     CONDUIT    537.66     0  02:33      2.06    0.12    0.28
  YS02001580YS02001583 CONDUIT     71.93     0  02:11      0.52    0.28    1.00
  YS02001583YS02001586 CONDUIT    122.35     0  02:11      0.51    0.19    1.00
  YS02001586YS02001590 CONDUIT    318.02     0  02:34      1.24    0.56    1.00
  YS02001590YS02001593 CONDUIT    318.06     0  02:36      1.12    2.00    1.00
  YS02001593YS02001596 CONDUIT    318.09     0  02:32      1.73    0.50    1.00
  YS02001596YS02001600 CONDUIT    318.07     0  02:36      1.27    0.62    1.00
  YS02001600YS02001601 CONDUIT    318.06     0  02:22      1.12    0.55    1.00
  YS02001601YS02001602 CONDUIT    493.89     0  02:11      1.75    1.78    1.00
  YS02001602YS02001605 CONDUIT    493.42     0  02:11      1.75   10.44    1.00
  YS02001605YS02001607 CONDUIT    493.82     0  02:11      1.75    2.71    1.00
  YS02001607YS02001610 CONDUIT    496.42     0  02:10      0.63    0.47    1.00
  YS02001610YS02001613 CONDUIT    499.15     0  02:10      0.64    0.58    1.00
  YS02001613YS02001616 CONDUIT    494.74     0  02:10      0.64    0.42    1.00
  YS02001616YS02001619 CONDUIT    493.13     0  02:11      0.66    0.86    1.00
  YS02001619YS02001622 CONDUIT    941.77     0  02:25      1.20    1.39    1.00
  YS02001622YS02001625 CONDUIT    942.97     0  02:25      1.20    0.50    1.00
  YS02001625YS02001629 CONDUIT    909.71     0  02:15      1.16    0.43    1.00
  YS02001629YS02163301 CONDUIT    910.11     0  02:15      1.16    1.12    1.00
  YS02001633YS02163601 CONDUIT   1292.04     0  02:15      1.65    1.36    1.00
  YS02001641YS02001644 CONDUIT   1289.08     0  02:15      1.64    4.17    1.00
  YS02001644YS02001647 CONDUIT   1647.03     0  02:16      2.13    0.97    1.00
  YS02001647YS02001649 CONDUIT   1649.62     0  02:16      2.26    0.87    1.00
  YS02001649YS02001757 CONDUIT   1821.64     0  02:17      2.34    1.11    1.00
  YS02001652YS02001649 CONDUIT    860.06     0  02:25      1.10    0.43    1.00
  YS02001655YS02001652 CONDUIT    859.38     0  02:25      1.25    0.42    1.00
  YS02001658YS02001655 CONDUIT    858.91     0  02:25      1.82    0.36    1.00
  YS02001661YS02001658 CONDUIT    857.76     0  02:25      2.17    0.34    1.00
  YS02001664YS02001661 CONDUIT    857.71     0  02:25      2.10    0.27    0.77
  YS02001745YS02001748 CONDUIT    531.67     0  02:25      2.02    0.20    0.91
  YS02001748YS02001751 CONDUIT    531.27     0  02:25      1.59    0.27    1.00
  YS02001751YS02001754 CONDUIT    531.48     0  02:25      1.40    0.26    1.00
  YS02001754YS02001757 CONDUIT    532.12     0  02:25      0.68    0.21    1.00
  YS02001757CaochengTiaoxuchi CONDUIT   3048.47     0  02:24      3.88    1.32    1.00
  YS02001759YS02001757 CONDUIT   1263.06     0  02:23      1.61    0.90    1.00
  YS02001762YS02001759 CONDUIT    700.90     0  02:21      0.89    0.81    1.00
  YS02001765YS02001762 CONDUIT    700.69     0  02:21      0.89    0.66    1.00
  YS02001767YS02001765 CONDUIT    700.29     0  02:21      0.89    0.88    1.00
  YS02001770YS02001767 CONDUIT    699.83     0  02:21      0.89    2.77    1.00
  YS02001774YS02001770 CONDUIT    522.29     0  02:25      0.67    0.33    1.00
  YS02001779YS02001774 CONDUIT    523.31     0  02:25      0.67    0.26    1.00
  YS02001783YS02001784 CONDUIT   1164.62     0  02:24      2.32    1.61    1.00
  YS02001784YS02001785 CONDUIT   1164.94     0  02:24      2.32    2.71    1.00
  YS02001786YS02001788 CONDUIT   1165.31     0  02:24      2.48    2.25    0.89
  YS02001788YS02001790 CONDUIT   1174.24     0  02:23      2.72    0.87    0.84
  YS02001790YS02001791 CONDUIT   1297.79     0  02:25      3.44    1.41    0.71
  YS02001791YS02001793 CONDUIT   1249.73     0  02:21      6.75    0.54    0.45
  YS02001793JiankangQianchi CONDUIT   1227.62     0  02:18      2.47    0.10    0.65
  YS02001882YS02001884 CONDUIT     36.81     0  02:14      0.12    0.04    1.00
  YS02001884YS02001887 CONDUIT     42.96     0  02:13      0.08    0.06    1.00
  YS02001887YS02001890 CONDUIT    788.04     0  02:25      1.00    1.35    1.00
  YS02001890YS02001895 CONDUIT    517.19     0  02:24      0.66    0.24    1.00
  YS02001895YS02001898 CONDUIT    517.48     0  02:25      0.66    0.90    1.00
  YS02001898YS02001901 CONDUIT    517.80     0  02:26      0.66    0.33    1.00
  YS02001901YS02001904 CONDUIT    517.36     0  02:25      0.66    0.80    1.00
  YS02001904YS02001907 CONDUIT    517.22     0  02:26      0.66    0.18    1.00
  YS02001907YS02006553 CONDUIT    800.90     0  02:38      0.89    0.94    1.00
  YS02001910YS02001907 CONDUIT   1382.92     0  02:25      1.76    0.78    1.00
  YS02001915YS02001910 CONDUIT   1382.29     0  02:25      1.76    0.69    1.00
  YS02001918YS02001915 CONDUIT    463.98     0  02:25      0.59    0.26    1.00
  YS02001920YS02001918 CONDUIT    464.96     0  02:25      0.67    0.45    1.00
  YS02001923YS02001920 CONDUIT    460.61     0  02:25      0.69    0.21    1.00
  YS02001926YS02001923 CONDUIT    463.11     0  02:25      0.94    0.66    1.00
  YS02001929YS02001926 CONDUIT    462.70     0  02:25      1.08    0.22    1.00
  YS02006553YS02006556 CONDUIT    800.93     0  02:38      1.02    0.69    1.00
  YS02006556YS02006558 CONDUIT    802.52     0  02:38      1.02    0.63    1.00
  YS02006558YS02006561 CONDUIT   1163.95     0  02:24      4.12    2.57    1.00
  YS02006561YS02001783 CONDUIT   1164.37     0  02:24      2.32    0.60    1.00
  YS02163301YS02001633 CONDUIT    908.58     0  02:15      1.16    0.85    1.00
  YS02163601YS02164001 CONDUIT   1290.94     0  02:15      1.64    1.14    1.00
  YS02164001YS02001641 CONDUIT   1289.46     0  02:15      1.64    1.76    1.00
  CC-R1                PUMP       683.00     0  00:00              1.00
  CC-R2                PUMP       683.00     0  00:00              1.00
  CC-S1                PUMP       200.00     0  00:00              1.00
  CC-S2                PUMP       200.00     0  00:00              1.00
  JK-R1                PUMP      1000.00     0  00:00              1.00
  JK-R2                PUMP      1000.00     0  00:00              1.00
  JK-S                 PUMP       300.00     0  00:00              1.00
  
  
  ***************************
  Flow Classification Summary
  ***************************
  
  -------------------------------------------------------------------------------------
                      Adjusted    ---------- Fraction of Time in Flow Class ---------- 
                       /Actual         Up    Down  Sub   Sup   Up    Down  Norm  Inlet 
  Conduit               Length    Dry  Dry   Dry   Crit  Crit  Crit  Crit  Ltd   Ctrl  
  -------------------------------------------------------------------------------------
  1                       1.00   0.00  0.00  0.00  0.00  1.00  0.00  0.00  0.41  0.00
  WS02003060WS02003069    1.00   0.00  0.00  0.00  0.98  0.02  0.00  0.00  0.66  0.00
  WS02003066WSF200        1.00   0.13  0.00  0.00  0.00  0.87  0.00  0.00  0.78  0.00
  WS02003067WS02003066    1.00   0.10  0.02  0.00  0.88  0.00  0.00  0.00  0.00  0.00
  WS02003069WS02003072    1.00   0.00  0.00  0.00  0.99  0.01  0.00  0.00  0.74  0.00
  WS02003072WS02003073    1.00   0.00  0.00  0.00  0.00  0.00  0.00  1.00  0.00  0.00
  WS02004401WS02004402    1.00   0.02  0.00  0.00  0.98  0.00  0.00  0.00  0.00  0.00
  WS02004402WS02004403    1.00   0.02  0.00  0.00  0.97  0.00  0.00  0.00  0.00  0.00
  WS02004403WS02004404    1.00   0.00  0.03  0.00  0.97  0.00  0.00  0.00  0.00  0.00
  WS02004404WS02004405    1.00   0.00  0.00  0.00  1.00  0.00  0.00  0.00  0.01  0.00
  WS02004405WS02004406    1.00   0.00  0.00  0.00  1.00  0.00  0.00  0.00  0.00  0.00
  WS02004406WS02004407    1.00   0.00  0.05  0.00  0.95  0.00  0.00  0.00  0.00  0.00
  WS02004407WS02004409    1.00   0.05  0.00  0.00  0.94  0.01  0.00  0.00  0.95  0.00
  WS02004409WS02004410    1.00   0.05  0.00  0.00  0.95  0.00  0.00  0.00  0.03  0.00
  WS02004410WS02004411    1.00   0.05  0.00  0.00  0.95  0.00  0.00  0.00  0.01  0.00
  WS02004411WS02004412    1.00   0.05  0.00  0.00  0.95  0.00  0.00  0.00  0.00  0.00
  WS02004412WS02004413    1.00   0.05  0.00  0.00  0.94  0.00  0.00  0.00  0.01  0.00
  WS02004413WS02003067    1.00   0.06  0.04  0.00  0.00  0.00  0.90  0.00  0.00  0.00
  WS02006109WS02006110    1.00   0.00  0.01  0.00  0.98  0.00  0.01  0.00  0.00  0.00
  WS02006110WS02006113    1.00   0.01  0.01  0.00  0.98  0.00  0.00  0.00  0.00  0.00
  WS02006111WS02006112    1.00   0.02  0.00  0.00  0.98  0.00  0.00  0.00  0.98  0.00
  WS02006112WS02006115    1.00   0.02  0.00  0.00  0.97  0.00  0.00  0.00  0.00  0.00
  WS02006113WS02006111    1.00   0.02  0.00  0.00  0.00  0.98  0.00  0.00  0.15  0.00
  WS02006115WS02006116    1.00   0.02  0.00  0.00  0.97  0.00  0.00  0.01  0.00  0.00
  WS02006116WS02004401    1.00   0.02  0.00  0.00  0.98  0.00  0.00  0.00  0.00  0.00
  WS02006228WS02006109    1.00   0.00  0.00  0.00  1.00  0.00  0.00  0.00  0.00  0.00
  WS02006229WS02006228    1.00   0.00  0.00  0.00  0.99  0.00  0.00  0.01  0.00  0.00
  WS02006230WS02006229    1.00   0.00  0.00  0.00  0.99  0.00  0.00  0.01  0.01  0.00
  WS02006231WS02006230    1.00   0.00  0.00  0.00  0.27  0.00  0.73  0.00  0.00  0.00
  WS02006232WS02006231    1.00   0.00  0.00  0.00  0.99  0.00  0.01  0.00  0.00  0.00
  WS02006234WS02006232    1.00   0.00  0.00  0.00  1.00  0.00  0.00  0.00  0.09  0.00
  WS02006235WS02006234    1.00   0.00  0.00  0.00  0.86  0.00  0.14  0.00  0.00  0.00
  WS02006238WS02006235    1.00   0.00  0.00  0.00  1.00  0.00  0.00  0.00  0.00  0.00
  WS02006239WS02006238    1.00   0.00  0.00  0.00  1.00  0.00  0.00  0.00  0.21  0.00
  WS02006240WS02006239    1.00   0.00  0.00  0.00  0.68  0.00  0.00  0.31  0.02  0.00
  WS02006242WS02006240    1.00   0.00  0.00  0.00  0.99  0.00  0.01  0.00  0.00  0.00
  WS02006243WS02006242    1.00   0.00  0.00  0.00  0.99  0.00  0.00  0.01  0.43  0.00
  WS02006245WS02006243    1.00   0.00  0.00  0.00  0.76  0.00  0.00  0.24  0.01  0.00
  WS02006247WS02006245    1.00   0.00  0.00  0.00  0.98  0.00  0.00  0.02  0.00  0.00
  WS02006248WS02006247    1.00   0.00  0.00  0.00  0.99  0.00  0.00  0.01  0.25  0.00
  WS02006249WS02006248    1.00   0.00  0.00  0.00  0.56  0.00  0.44  0.00  0.00  0.00
  WS02006251WS02006249    1.00   0.00  0.00  0.00  0.99  0.01  0.00  0.00  0.46  0.00
  WS02006252WS02006251    1.00   0.00  0.49  0.00  0.09  0.00  0.42  0.00  0.00  0.00
  WS02006256WS02006235    1.00   0.00  0.00  0.00  0.99  0.01  0.00  0.00  0.00  0.00
  WSF200WS02003060        1.00   0.00  0.13  0.00  0.30  0.58  0.00  0.00  0.41  0.00
  YS02001580YS02001583    1.00   0.27  0.54  0.00  0.19  0.00  0.00  0.00  0.63  0.00
  YS02001583YS02001586    1.00   0.41  0.35  0.00  0.24  0.00  0.00  0.00  0.63  0.00
  YS02001586YS02001590    1.00   0.13  0.00  0.00  0.45  0.04  0.00  0.39  0.38  0.00
  YS02001590YS02001593    1.00   0.13  0.01  0.00  0.12  0.00  0.75  0.00  0.00  0.00
  YS02001593YS02001596    1.00   0.13  0.00  0.00  0.13  0.01  0.00  0.72  0.02  0.00
  YS02001596YS02001600    1.00   0.14  0.00  0.00  0.20  0.01  0.00  0.65  0.05  0.00
  YS02001600YS02001601    1.00   0.13  0.01  0.00  0.86  0.00  0.00  0.00  0.60  0.00
  YS02001601YS02001602    1.00   0.13  0.01  0.00  0.87  0.00  0.00  0.00  0.00  0.00
  YS02001602YS02001605    1.00   0.14  0.00  0.00  0.86  0.00  0.00  0.00  0.00  0.00
  YS02001605YS02001607    1.00   0.14  0.00  0.00  0.86  0.00  0.00  0.00  0.00  0.00
  YS02001607YS02001610    1.00   0.13  0.01  0.00  0.86  0.00  0.00  0.00  0.01  0.00
  YS02001610YS02001613    1.00   0.13  0.00  0.00  0.87  0.00  0.00  0.00  0.00  0.00
  YS02001613YS02001616    1.00   0.13  0.00  0.00  0.87  0.00  0.00  0.00  0.00  0.00
  YS02001616YS02001619    1.00   0.13  0.00  0.00  0.87  0.00  0.00  0.00  0.00  0.00
  YS02001619YS02001622    1.00   0.13  0.00  0.00  0.87  0.00  0.00  0.00  0.28  0.00
  YS02001622YS02001625    1.00   0.13  0.00  0.00  0.87  0.00  0.00  0.00  0.05  0.00
  YS02001625YS02001629    1.00   0.13  0.05  0.00  0.16  0.00  0.66  0.00  0.00  0.00
  YS02001629YS02163301    1.00   0.15  0.01  0.00  0.83  0.00  0.00  0.00  0.00  0.00
  YS02001633YS02163601    1.00   0.00  0.01  0.00  0.99  0.00  0.00  0.00  0.15  0.00
  YS02001641YS02001644    1.00   0.00  0.01  0.00  0.99  0.00  0.00  0.00  0.00  0.00
  YS02001644YS02001647    1.00   0.00  0.17  0.00  0.83  0.00  0.00  0.00  0.00  0.00
  YS02001647YS02001649    1.00   0.00  0.17  0.00  0.52  0.30  0.00  0.00  0.55  0.00
  YS02001649YS02001757    1.00   0.00  0.00  0.00  0.82  0.18  0.00  0.00  0.41  0.00
  YS02001652YS02001649    1.00   0.00  0.00  0.00  0.96  0.04  0.00  0.00  0.74  0.00
  YS02001655YS02001652    1.00   0.00  0.00  0.00  0.18  0.01  0.00  0.80  0.05  0.00
  YS02001658YS02001655    1.00   0.00  0.14  0.00  0.66  0.20  0.00  0.00  0.69  0.00
  YS02001661YS02001658    1.00   0.14  0.00  0.00  0.50  0.36  0.00  0.00  0.70  0.00
  YS02001664YS02001661    1.00   0.13  0.00  0.00  0.78  0.10  0.00  0.00  0.85  0.00
  YS02001745YS02001748    1.00   0.00  0.00  0.00  0.10  0.00  0.00  0.90  0.04  0.00
  YS02001748YS02001751    1.00   0.00  0.00  0.00  0.82  0.18  0.00  0.00  0.74  0.00
  YS02001751YS02001754    1.00   0.00  0.00  0.00  0.16  0.01  0.00  0.84  0.03  0.00
  YS02001754YS02001757    1.00   0.00  0.00  0.00  1.00  0.00  0.00  0.00  0.83  0.00
  YS02001757CaochengTiaoxuchi    1.00   0.00  0.00  0.00  1.00  0.00  0.00  0.00  0.67  0.00
  YS02001759YS02001757    1.00   0.00  0.00  0.00  1.00  0.00  0.00  0.00  0.52  0.00
  YS02001762YS02001759    1.00   0.00  0.00  0.00  1.00  0.00  0.00  0.00  0.06  0.00
  YS02001765YS02001762    1.00   0.00  0.00  0.00  1.00  0.00  0.00  0.00  0.66  0.00
  YS02001767YS02001765    1.00   0.00  0.00  0.00  1.00  0.00  0.00  0.00  0.01  0.00
  YS02001770YS02001767    1.00   0.00  0.00  0.00  1.00  0.00  0.00  0.00  0.00  0.00
  YS02001774YS02001770    1.00   0.00  0.13  0.00  0.70  0.00  0.16  0.00  0.03  0.00
  YS02001779YS02001774    1.00   0.00  0.00  0.00  1.00  0.00  0.00  0.00  0.76  0.00
  YS02001783YS02001784    1.00   0.00  0.18  0.00  0.82  0.00  0.00  0.00  0.55  0.00
  YS02001784YS02001785    1.00   0.00  0.00  0.00  1.00  0.00  0.00  0.00  0.17  0.00
  YS02001786YS02001788    1.00   0.00  0.00  0.00  0.79  0.21  0.00  0.00  0.00  0.00
  YS02001788YS02001790    1.00   0.00  0.00  0.00  0.21  0.79  0.00  0.00  0.80  0.00
  YS02001790YS02001791    1.00   0.00  0.00  0.00  0.01  0.99  0.00  0.00  0.16  0.00
  YS02001791YS02001793    1.00   0.00  0.00  0.00  0.00  1.00  0.00  0.00  0.01  0.00
  YS02001793JiankangQianchi    1.00   0.00  0.00  0.00  0.99  0.01  0.00  0.00  0.95  0.00
  YS02001882YS02001884    1.00   0.15  0.01  0.00  0.84  0.00  0.00  0.00  0.00  0.00
  YS02001884YS02001887    1.00   0.06  0.05  0.00  0.89  0.00  0.00  0.00  0.00  0.00
  YS02001887YS02001890    1.00   0.00  0.00  0.00  0.97  0.00  0.03  0.00  0.00  0.00
  YS02001890YS02001895    1.00   0.00  0.16  0.00  0.83  0.00  0.00  0.00  0.00  0.00
  YS02001895YS02001898    1.00   0.17  0.00  0.00  0.81  0.00  0.02  0.00  0.00  0.00
  YS02001898YS02001901    1.00   0.17  0.00  0.00  0.83  0.00  0.00  0.00  0.01  0.00
  YS02001901YS02001904    1.00   0.17  0.00  0.00  0.83  0.00  0.00  0.00  0.00  0.00
  YS02001904YS02001907    1.00   0.00  0.16  0.00  0.83  0.00  0.00  0.00  0.00  0.00
  YS02001907YS02006553    1.00   0.00  0.02  0.00  0.98  0.00  0.00  0.00  0.00  0.00
  YS02001910YS02001907    1.00   0.00  0.00  0.00  0.97  0.00  0.00  0.03  0.12  0.00
  YS02001915YS02001910    1.00   0.00  0.00  0.00  0.97  0.03  0.00  0.00  0.16  0.00
  YS02001918YS02001915    1.00   0.00  0.01  0.00  0.98  0.02  0.00  0.00  0.75  0.00
  YS02001920YS02001918    1.00   0.00  0.01  0.00  0.99  0.00  0.00  0.00  0.00  0.00
  YS02001923YS02001920    1.00   0.00  0.00  0.00  1.00  0.00  0.00  0.00  0.92  0.00
  YS02001926YS02001923    1.00   0.00  0.07  0.00  0.06  0.00  0.87  0.00  0.00  0.00
  YS02001929YS02001926    1.00   0.00  0.13  0.00  0.87  0.00  0.00  0.00  0.82  0.00
  YS02006553YS02006556    1.00   0.01  0.00  0.00  0.99  0.00  0.00  0.00  0.03  0.00
  YS02006556YS02006558    1.00   0.00  0.00  0.00  1.00  0.00  0.00  0.00  0.00  0.00
  YS02006558YS02006561    1.00   0.18  0.00  0.00  0.05  0.76  0.00  0.00  0.19  0.00
  YS02006561YS02001783    1.00   0.18  0.00  0.00  0.09  0.73  0.00  0.00  0.68  0.00
  YS02163301YS02001633    1.00   0.00  0.15  0.00  0.85  0.00  0.00  0.00  0.00  0.00
  YS02163601YS02164001    1.00   0.00  0.08  0.00  0.92  0.00  0.00  0.00  0.00  0.00
  YS02164001YS02001641    1.00   0.01  0.07  0.00  0.92  0.00  0.00  0.00  0.05  0.00
  
  
  *************************
  Conduit Surcharge Summary
  *************************
  
  ----------------------------------------------------------------------------
                                                           Hours        Hours 
                         --------- Hours Full --------   Above Full   Capacity
  Conduit                Both Ends  Upstream  Dnstream   Normal Flow   Limited
  ----------------------------------------------------------------------------
  WS02003072WS02003073        0.01      0.01      0.01      1.03         0.01
  WS02004403WS02004404        0.01      0.01      0.01      0.01         0.01
  WS02004404WS02004405        0.01      0.01      0.01      4.20         0.01
  WS02004405WS02004406        0.01      0.01      0.01      0.56         0.01
  WS02006109WS02006110        0.58      0.58      1.92      0.68         0.01
  WS02006110WS02006113        0.01      0.01      1.87      0.01         0.01
  WS02006111WS02006112        0.01      0.01      2.57      0.01         0.01
  WS02006112WS02006115        0.01      0.01      0.80      0.01         0.01
  WS02006228WS02006109        1.83      1.93      1.83      2.87         1.83
  WS02006229WS02006228        1.83      1.84      1.83      2.32         1.82
  WS02006230WS02006229        2.04      2.23      2.04      4.72         2.04
  WS02006231WS02006230        0.58      0.58      0.74      4.44         0.01
  WS02006232WS02006231        0.69      0.69      1.92      0.74         0.01
  WS02006234WS02006232        1.77      1.77      1.92      0.73         0.72
  WS02006235WS02006234        0.91      0.91      1.80      4.35         0.02
  WS02006238WS02006235        1.82      1.82      1.93      0.01         0.01
  WS02006239WS02006238        1.86      1.91      1.86      2.12         1.69
  WS02006240WS02006239        1.82      1.85      1.82      2.11         1.59
  WS02006242WS02006240        1.84      1.84      2.01      2.30         0.01
  WS02006243WS02006242        1.88      1.88      1.95      0.01         0.03
  WS02006245WS02006243        1.86      1.87      1.86      1.50         1.31
  WS02006247WS02006245        1.86      1.89      1.86      4.05         1.85
  WS02006248WS02006247        1.86      1.86      1.88      0.01         0.04
  WS02006249WS02006248        1.85      1.85      1.87      4.03         0.01
  WS02006251WS02006249        1.86      1.87      1.87      2.17         1.81
  WS02006252WS02006251        2.22      2.22      2.23      2.23         0.01
  WS02006256WS02006235        4.36      4.40      6.38      1.16         0.01
  YS02001580YS02001583        0.59      0.59      0.65      0.01         0.01
  YS02001583YS02001586        0.60      0.60      0.72      0.01         0.01
  YS02001586YS02001590        0.73      0.73      0.80      0.01         0.01
  YS02001590YS02001593        0.80      0.80      0.82      0.82         0.01
  YS02001593YS02001596        0.81      0.81      0.92      0.01         0.01
  YS02001596YS02001600        0.98      0.98      1.07      0.01         0.01
  YS02001600YS02001601        1.13      1.13      1.41      0.01         0.01
  YS02001601YS02001602        1.29      1.29      1.45      1.07         0.01
  YS02001602YS02001605        1.24      1.24      1.29      2.34         0.01
  YS02001605YS02001607        1.20      1.24      1.20      1.36         1.19
  YS02001607YS02001610        0.78      0.78      0.81      0.01         0.01
  YS02001610YS02001613        0.78      0.78      0.81      0.01         0.01
  YS02001613YS02001616        0.74      0.74      0.78      0.01         0.01
  YS02001616YS02001619        0.73      0.73      0.74      0.01         0.02
  YS02001619YS02001622        0.72      0.73      0.72      0.80         0.68
  YS02001622YS02001625        0.72      0.72      0.91      0.01         0.01
  YS02001625YS02001629        0.67      0.67      0.91      0.01         0.01
  YS02001629YS02163301        0.90      0.90      0.91      0.08         0.16
  YS02001633YS02163601        0.93      0.93      0.96      0.31         0.30
  YS02001641YS02001644        0.84      0.87      0.84      1.50         0.83
  YS02001644YS02001647        0.63      0.63      0.84      0.01         0.01
  YS02001647YS02001649        0.63      0.63      0.75      0.01         0.01
  YS02001649YS02001757        0.75      0.75      0.81      0.10         0.06
  YS02001652YS02001649        0.59      0.59      0.75      0.01         0.01
  YS02001655YS02001652        0.42      0.42      0.57      0.01         0.01
  YS02001658YS02001655        0.24      0.24      0.42      0.01         0.01
  YS02001661YS02001658        0.03      0.03      0.24      0.01         0.01
  YS02001664YS02001661        0.01      0.01      0.07      0.01         0.01
  YS02001745YS02001748        0.01      0.01      0.18      0.01         0.01
  YS02001748YS02001751        0.22      0.22      0.32      0.01         0.01
  YS02001751YS02001754        0.32      0.32      0.49      0.01         0.01
  YS02001754YS02001757        0.52      0.52      0.81      0.01         0.01
  YS02001757CaochengTiaoxuchi        0.81      0.81      1.81      0.32         0.33
  YS02001759YS02001757        0.73      0.73      0.81      0.01         0.01
  YS02001762YS02001759        0.69      0.69      0.73      0.01         0.02
  YS02001765YS02001762        0.65      0.65      0.69      0.01         0.01
  YS02001767YS02001765        0.62      0.62      0.65      0.01         0.02
  YS02001770YS02001767        0.61      0.61      0.62      0.52         0.40
  YS02001774YS02001770        0.59      0.59      0.67      0.01         0.01
  YS02001779YS02001774        0.47      0.47      0.67      0.01         0.01
  YS02001783YS02001784        0.50      0.52      0.50      0.69         0.50
  YS02001784YS02001785        0.39      0.50      0.39      0.94         0.39
  YS02001786YS02001788        0.01      0.39      0.01      0.81         0.01
  YS02001790YS02001791        0.01      0.01      0.01      0.48         0.01
  YS02001793JiankangQianchi        0.01      0.01      7.45      0.01         0.01
  YS02001882YS02001884        0.46      0.46      0.48      0.01         0.01
  YS02001884YS02001887        0.50      0.50      0.51      0.01         0.01
  YS02001887YS02001890        0.53      0.53      0.54      0.10         0.01
  YS02001890YS02001895        0.45      0.45      0.56      0.01         0.01
  YS02001895YS02001898        0.45      0.45      0.45      0.01         0.01
  YS02001898YS02001901        0.46      0.46      0.50      0.01         0.01
  YS02001901YS02001904        0.49      0.49      0.50      0.01         0.01
  YS02001904YS02001907        0.49      0.49      0.79      0.01         0.01
  YS02001907YS02006553        0.95      0.95      1.03      0.01         0.01
  YS02001910YS02001907        0.55      0.55      0.77      0.01         0.01
  YS02001915YS02001910        0.46      0.46      0.55      0.01         0.01
  YS02001918YS02001915        0.38      0.38      0.46      0.01         0.01
  YS02001920YS02001918        0.38      0.38      0.39      0.01         0.01
  YS02001923YS02001920        0.33      0.33      0.39      0.01         0.01
  YS02001926YS02001923        0.08      0.08      0.12      0.01         0.01
  YS02001929YS02001926        0.01      0.01      0.12      0.01         0.01
  YS02006553YS02006556        0.65      0.65      0.79      0.01         0.01
  YS02006556YS02006558        0.72      0.72      0.81      0.01         0.01
  YS02006558YS02006561        0.41      0.64      0.41      0.89         0.41
  YS02006561YS02001783        0.34      0.34      0.52      0.01         0.01
  YS02163301YS02001633        0.91      0.91      0.95      0.01         0.01
  YS02163601YS02164001        0.88      0.88      0.96      0.09         0.01
  YS02164001YS02001641        0.87      0.88      0.87      0.66         0.58
  
  
  ***************
  Pumping Summary
  ***************
  
  ---------------------------------------------------------------------------------------------------------
                                                  Min       Avg       Max     Total     Power    % Time Off
                        Percent   Number of      Flow      Flow      Flow    Volume     Usage    Pump Curve
  Pump                 Utilized   Start-Ups       LPS       LPS       LPS  10^6 ltr     Kw-hr    Low   High
  ---------------------------------------------------------------------------------------------------------
  CC-R1                   17.01           4      0.00    683.00    683.00     3.347     63.05    0.0   11.1
  CC-R2                   16.07           5      0.00    683.00    683.00     3.161     59.56    0.0   12.5
  CC-S1                   45.86          10      0.00    200.00    200.00     2.642     15.60    0.0    0.0
  CC-S2                   33.13          10      0.00    200.00    200.00     1.909     11.20    0.0    0.0
  JK-R1                    7.44          12      0.00   1000.00   1000.00     2.143     24.18    0.0    0.0
  JK-R2                    2.24           5      0.00   1000.00   1000.00     0.644      6.52    0.0    0.0
  JK-S                    14.34          16      0.00    300.00    300.00     1.239     17.72    0.0    0.0
  

  Analysis begun on:  Mon Apr 14 21:00:19 2025
  Analysis ended on:  Mon Apr 14 21:00:21 2025
  Total elapsed time: 00:00:02