
  EPA STORM WATER MANAGEMENT MODEL - VERSION 5.2 (Build 5.2.4)
  PYSWMM TOOLKIT API - VERSION v1.0 (2023-11-27)
  ------------------------------------------------------------

  WARNING 04: minimum elevation drop used for Conduit WS02004404WS02004405
  WARNING 03: negative offset ignored for Link YS02001904YS02001907
  
  ****************
  Analysis Options
  ****************
  Flow Units ............... LPS
  Process Models:
    Rainfall/Runoff ........ YES
    RDII ................... NO
    Snowmelt ............... NO
    Groundwater ............ NO
    Flow Routing ........... YES
    Ponding Allowed ........ NO
    Water Quality .......... NO
  Infiltration Method ...... HORTON
  Flow Routing Method ...... DYNWAVE
  Surcharge Method ......... EXTRAN
  Starting Date ............ 08/28/2015 08:00:00
  Ending Date .............. 08/28/2015 16:00:00
  Antecedent Dry Days ...... 8.0
  Report Time Step ......... 00:01:00
  Wet Time Step ............ 00:01:00
  Dry Time Step ............ 00:01:00
  Routing Time Step ........ 30.00 sec
  Variable Time Step ....... YES
  Maximum Trials ........... 8
  Number of Threads ........ 4
  Head Tolerance ........... 0.001500 m
  
  
  **************************        Volume         Depth
  Runoff Quantity Continuity     hectare-m            mm
  **************************     ---------       -------
  Total Precipitation ......         1.719        51.815
  Evaporation Loss .........         0.000         0.000
  Infiltration Loss ........         0.098         2.965
  Surface Runoff ...........         1.588        47.864
  Final Storage ............         0.033         0.994
  Continuity Error (%) .....        -0.017
  
  
  **************************        Volume        Volume
  Flow Routing Continuity        hectare-m      10^6 ltr
  **************************     ---------     ---------
  Dry Weather Inflow .......         0.025         0.251
  Wet Weather Inflow .......         1.588        15.876
  Groundwater Inflow .......         0.000         0.000
  RDII Inflow ..............         0.000         0.000
  External Inflow ..........         0.083         0.834
  External Outflow .........         1.429        14.287
  Flooding Loss ............         0.330         3.298
  Evaporation Loss .........         0.000         0.000
  Exfiltration Loss ........         0.000         0.000
  Initial Stored Volume ....         0.243         2.431
  Final Stored Volume ......         0.187         1.870
  Continuity Error (%) .....        -0.331
  
  
  *************************
  Highest Continuity Errors
  *************************
  Node YS02001884 (5.24%)
  Node YS02001583 (-4.89%)
  Node YS02001774 (1.83%)
  Node WS02006256 (-1.00%)
  
  
  ***************************
  Time-Step Critical Elements
  ***************************
  Link WS02006252WS02006251 (44.72%)
  Link WS02006238WS02006235 (17.61%)
  Link WS02004404WS02004405 (14.57%)
  Link WS02006235WS02006234 (6.06%)
  Link YS02001791YS02001793 (5.17%)
  
  
  ********************************
  Highest Flow Instability Indexes
  ********************************
  Link WS02006113WS02006111 (54)
  Link WS02006111WS02006112 (24)
  Link WS02004404WS02004405 (20)
  Link WS02004403WS02004404 (18)
  Link WS02004405WS02004406 (16)
  
  
  *********************************
  Most Frequent Nonconverging Nodes
  *********************************
  Node CC-1 (10.12%)
  Node CC-2 (10.12%)
  Node JK-1 (10.12%)
  Node JK-2 (10.12%)
  Node WSC (10.12%)
  
  
  *************************
  Routing Time Step Summary
  *************************
  Minimum Time Step           :     0.00 sec
  Average Time Step           :     1.94 sec
  Maximum Time Step           :     7.04 sec
  % of Time in Steady State   :     0.00
  Average Iterations per Step :     2.91
  % of Steps Not Converging   :    10.12
  Time Step Frequencies       :
     30.000 - 13.228 sec      :     0.00 %
     13.228 -  5.833 sec      :     9.62 %
      5.833 -  2.572 sec      :    15.93 %
      2.572 -  1.134 sec      :    23.01 %
      1.134 -  0.500 sec      :    51.44 %
  
  
  ***************************
  Subcatchment Runoff Summary
  ***************************
  
  ------------------------------------------------------------------------------------------------------------------------------
                            Total      Total      Total      Total     Imperv       Perv      Total       Total     Peak  Runoff
                           Precip      Runon       Evap      Infil     Runoff     Runoff     Runoff      Runoff   Runoff   Coeff
  Subcatchment                 mm         mm         mm         mm         mm         mm         mm    10^6 ltr      LPS
  ------------------------------------------------------------------------------------------------------------------------------
  sub60                     51.82       0.00       0.00       1.78      44.39       4.44      48.83        0.64   399.63   0.942
  sub61                     51.82       0.00       0.00       2.59      41.87       6.23      48.10        0.88   554.63   0.928
  sub62                     51.82       0.00       0.00       1.19      46.38       2.96      49.34        1.35   786.18   0.952
  sub63                     51.82       0.00       0.00       4.78      35.82      10.24      46.06        1.05   624.83   0.889
  sub64                     51.82       0.00       0.00       2.42      42.83       5.36      48.19        1.16   642.49   0.930
  sub65                     51.82       0.00       0.00       2.09      43.82       4.65      48.47        1.33   718.26   0.935
  sub66                     51.82       0.00       0.00       5.91      35.71       9.12      44.83        2.09   942.90   0.865
  sub67                     51.82       0.00       0.00       1.14      46.42       3.00      49.42        0.92   602.58   0.954
  sub68                     51.82       0.00       0.00       2.14      43.37       5.11      48.48        1.33   803.43   0.936
  sub69                     51.82       0.00       0.00       1.91      43.93       5.87      49.79        1.84   956.08   0.961
  sub70                     51.82       0.00       0.00       6.33      34.03      11.29      45.32        1.31   530.88   0.875
  sub71                     51.82       0.00       0.00       1.22      46.34       2.93      49.27        1.29   696.05   0.951
  sub72                     51.82       0.00       0.00       1.09      46.78       2.54      49.32        0.68   338.00   0.952
  
  
  ******************
  Node Depth Summary
  ******************
  
  ---------------------------------------------------------------------------------
                                 Average  Maximum  Maximum  Time of Max    Reported
                                   Depth    Depth      HGL   Occurrence   Max Depth
  Node                 Type       Meters   Meters   Meters  days hr:min      Meters
  ---------------------------------------------------------------------------------
  WS02003060           JUNCTION     0.25     0.38     5.32     0  03:06        0.38
  WS02003066           JUNCTION     0.20     0.30     5.85     0  03:06        0.30
  WS02003067           JUNCTION     0.52     0.70     6.02     0  03:05        0.70
  WS02003069           JUNCTION     0.28     0.43     5.01     0  03:07        0.43
  WS02003072           JUNCTION     0.34     0.50     4.87     0  03:07        0.50
  WS02003073           JUNCTION     0.20     0.30     4.36     0  03:08        0.30
  WS02004401           JUNCTION     0.62     0.88     6.88     0  03:02        0.87
  WS02004402           JUNCTION     0.65     0.90     6.86     0  03:04        0.90
  WS02004403           JUNCTION     0.68     0.92     6.85     0  03:04        0.92
  WS02004404           JUNCTION     0.75     1.03     6.88     0  03:04        1.03
  WS02004405           JUNCTION     0.74     0.97     6.82     0  03:03        0.96
  WS02004406           JUNCTION     0.75     0.96     6.79     0  03:04        0.96
  WS02004407           JUNCTION     0.19     0.30     6.61     0  03:04        0.30
  WS02004409           JUNCTION     0.42     0.67     6.44     0  03:04        0.67
  WS02004410           JUNCTION     0.44     0.68     6.40     0  03:04        0.68
  WS02004411           JUNCTION     0.46     0.69     6.37     0  03:05        0.69
  WS02004412           JUNCTION     0.48     0.70     6.34     0  03:05        0.70
  WS02004413           JUNCTION     0.64     0.86     6.33     0  03:05        0.86
  WS02006109           JUNCTION     0.68     1.36     7.98     0  02:31        1.25
  WS02006110           JUNCTION     0.68     1.52     8.11     0  02:31        1.09
  WS02006111           JUNCTION     0.19     0.29     6.99     0  02:55        0.29
  WS02006112           JUNCTION     0.78     1.11     6.99     0  02:43        1.07
  WS02006113           JUNCTION     0.29     0.46     7.35     0  03:11        0.46
  WS02006115           JUNCTION     0.51     0.77     6.91     0  03:03        0.77
  WS02006116           JUNCTION     0.59     0.85     6.89     0  03:03        0.85
  WS02006228           JUNCTION     0.67     1.28     7.93     0  02:31        1.24
  WS02006229           JUNCTION     0.64     1.31     8.00     0  02:43        1.18
  WS02006230           JUNCTION     0.64     1.56     8.31     0  02:43        1.16
  WS02006231           JUNCTION     0.44     1.30     8.42     0  02:48        0.92
  WS02006232           JUNCTION     0.58     1.59     8.63     0  02:31        1.59
  WS02006234           JUNCTION     0.50     1.96     9.12     0  02:31        1.96
  WS02006235           JUNCTION     0.54     2.00     9.16     0  02:31        2.00
  WS02006238           JUNCTION     0.57     2.15     9.29     0  02:31        2.15
  WS02006239           JUNCTION     0.53     2.03     9.24     0  02:31        2.03
  WS02006240           JUNCTION     0.50     2.10     9.39     0  02:31        2.10
  WS02006242           JUNCTION     0.57     1.55     8.82     0  02:31        1.55
  WS02006243           JUNCTION     0.47     1.48     8.90     0  02:31        1.48
  WS02006245           JUNCTION     0.47     1.56     9.04     0  02:31        1.56
  WS02006247           JUNCTION     0.49     1.47     8.97     0  02:31        1.47
  WS02006248           JUNCTION     0.45     1.10     8.69     0  02:26        1.10
  WS02006249           JUNCTION     0.48     1.09     8.69     0  01:54        1.09
  WS02006251           JUNCTION     0.47     1.39     9.06     0  02:08        1.27
  WS02006252           JUNCTION     0.35     1.50     9.74     0  00:00        1.50
  WS02006256           JUNCTION     0.98     2.35     9.28     0  00:00        2.35
  WSF200               JUNCTION     0.18     0.29     5.52     0  03:06        0.29
  YS02001580           JUNCTION     0.06     1.05     9.59     0  02:06        0.77
  YS02001583           JUNCTION     0.10     1.14     9.64     0  02:06        0.81
  YS02001586           JUNCTION     0.16     1.13     9.30     0  02:06        1.13
  YS02001590           JUNCTION     0.26     1.40     9.26     0  02:04        1.40
  YS02001593           JUNCTION     0.19     1.33     9.19     0  02:06        1.28
  YS02001596           JUNCTION     0.26     1.68     9.10     0  02:06        1.65
  YS02001600           JUNCTION     0.32     1.87     9.00     0  02:06        1.87
  YS02001601           JUNCTION     0.51     2.06     8.90     0  02:01        2.06
  YS02001602           JUNCTION     0.43     1.87     8.77     0  02:01        1.87
  YS02001605           JUNCTION     0.39     1.78     8.68     0  02:01        1.78
  YS02001607           JUNCTION     0.39     1.65     8.49     0  02:26        1.64
  YS02001610           JUNCTION     0.44     1.68     8.48     0  02:05        1.68
  YS02001613           JUNCTION     0.40     1.68     8.52     0  02:09        1.68
  YS02001616           JUNCTION     0.32     1.61     8.52     0  02:09        1.61
  YS02001619           JUNCTION     0.30     1.61     8.54     0  02:09        1.61
  YS02001622           JUNCTION     0.29     1.60     8.50     0  02:09        1.60
  YS02001625           JUNCTION     0.56     1.78     8.38     0  02:09        1.78
  YS02001629           JUNCTION     0.40     1.85     8.40     0  02:10        1.85
  YS02001633           JUNCTION     0.48     2.08     8.53     0  02:31        2.08
  YS02001641           JUNCTION     0.47     1.95     8.39     0  02:11        1.94
  YS02001644           JUNCTION     0.47     1.92     8.35     0  02:11        1.92
  YS02001647           JUNCTION     0.25     1.74     8.35     0  02:12        1.73
  YS02001649           JUNCTION     0.28     1.93     8.32     0  02:13        1.93
  YS02001652           JUNCTION     0.17     1.81     8.40     0  02:13        1.81
  YS02001655           JUNCTION     0.13     1.63     8.48     0  02:12        1.63
  YS02001658           JUNCTION     0.09     1.57     8.71     0  02:12        1.40
  YS02001661           JUNCTION     0.13     1.19     8.60     0  02:12        1.18
  YS02001664           JUNCTION     0.05     0.52     8.45     0  02:12        0.39
  YS02001745           JUNCTION     0.05     0.69     8.21     0  02:12        0.68
  YS02001748           JUNCTION     0.08     1.58     8.66     0  02:12        1.12
  YS02001751           JUNCTION     0.11     1.45     8.33     0  02:12        1.32
  YS02001754           JUNCTION     0.15     1.64     8.25     0  02:12        1.58
  YS02001757           JUNCTION     0.29     1.93     8.19     0  02:12        1.92
  YS02001759           JUNCTION     0.23     1.91     8.27     0  02:12        1.90
  YS02001762           JUNCTION     0.22     1.90     8.30     0  02:12        1.88
  YS02001765           JUNCTION     0.21     1.88     8.33     0  02:12        1.85
  YS02001767           JUNCTION     0.21     1.86     8.35     0  02:12        1.84
  YS02001770           JUNCTION     0.22     1.91     8.41     0  02:12        1.88
  YS02001774           JUNCTION     0.29     1.98     8.40     0  02:12        1.95
  YS02001779           JUNCTION     0.13     1.68     8.37     0  02:10        1.68
  YS02001783           JUNCTION     0.22     1.24     7.38     0  02:09        1.23
  YS02001784           JUNCTION     0.23     1.12     7.19     0  02:10        1.12
  YS02001786           JUNCTION     0.20     0.89     6.92     0  02:10        0.89
  YS02001788           JUNCTION     0.14     0.62     6.60     0  02:13        0.62
  YS02001790           JUNCTION     0.17     0.72     6.37     0  02:11        0.72
  YS02001791           JUNCTION     0.11     0.44     5.91     0  02:16        0.43
  YS02001793           JUNCTION     0.06     0.31     5.14     0  02:12        0.27
  YS02001882           JUNCTION     0.27     1.64     8.36     0  02:09        1.64
  YS02001884           JUNCTION     0.37     1.74     8.35     0  02:09        1.73
  YS02001887           JUNCTION     0.44     1.81     8.35     0  02:12        1.81
  YS02001890           JUNCTION     0.47     1.81     8.32     0  02:09        1.81
  YS02001895           JUNCTION     0.24     1.58     8.33     0  02:09        1.56
  YS02001898           JUNCTION     0.25     1.59     8.33     0  02:09        1.56
  YS02001901           JUNCTION     0.37     1.69     8.30     0  02:09        1.67
  YS02001904           JUNCTION     0.35     1.64     8.27     0  02:09        1.63
  YS02001907           JUNCTION     0.67     1.96     8.25     0  02:09        1.96
  YS02001910           JUNCTION     0.47     1.97     8.48     0  02:10        1.83
  YS02001915           JUNCTION     0.27     1.92     8.64     0  02:10        1.68
  YS02001918           JUNCTION     0.13     1.81     8.88     0  02:10        1.37
  YS02001920           JUNCTION     0.21     2.07     9.08     0  02:10        1.45
  YS02001923           JUNCTION     0.10     1.98     9.24     0  02:10        1.22
  YS02001926           JUNCTION     0.14     1.90     9.35     0  02:10        1.04
  YS02001929           JUNCTION     0.07     1.78     9.47     0  02:10        0.80
  YS02006553           JUNCTION     0.68     1.97     8.26     0  02:12        1.97
  YS02006556           JUNCTION     0.65     1.95     8.26     0  02:12        1.95
  YS02006558           JUNCTION     0.69     1.99     8.26     0  02:12        1.99
  YS02006561           JUNCTION     0.13     0.90     7.56     0  02:09        0.90
  YS02163301           JUNCTION     0.43     1.92     8.44     0  02:11        1.92
  YS02163601           JUNCTION     0.52     2.02     8.42     0  02:11        2.02
  YS02164001           JUNCTION     0.46     1.95     8.40     0  02:11        1.93
  CC-1                 OUTFALL      0.00     0.00     0.00     0  00:00        0.00
  CC-2                 OUTFALL      0.00     0.00     0.00     0  00:00        0.00
  JK-1                 OUTFALL      0.00     0.00     0.00     0  00:00        0.00
  JK-2                 OUTFALL      0.00     0.00     0.00     0  00:00        0.00
  WSC                  OUTFALL      0.19     0.30     0.97     0  03:08        0.30
  CC-storage           STORAGE      0.81     1.49     6.99     0  02:36        1.49
  JK-storage           STORAGE      2.94     4.23     5.03     0  02:11        4.23
  
  
  *******************
  Node Inflow Summary
  *******************
  
  -------------------------------------------------------------------------------------------------
                                  Maximum  Maximum                  Lateral       Total        Flow
                                  Lateral    Total  Time of Max      Inflow      Inflow     Balance
                                   Inflow   Inflow   Occurrence      Volume      Volume       Error
  Node                 Type           LPS      LPS  days hr:min    10^6 ltr    10^6 ltr     Percent
  -------------------------------------------------------------------------------------------------
  WS02003060           JUNCTION     16.53   555.28     0  03:06       0.476        5.79       0.034
  WS02003066           JUNCTION      0.00   538.26     0  03:06           0        5.31       0.023
  WS02003067           JUNCTION      0.00   538.12     0  03:05           0        5.32       0.075
  WS02003069           JUNCTION      0.32   555.18     0  03:06     0.00922        5.79       0.059
  WS02003072           JUNCTION      0.00   554.42     0  03:07           0        5.79       0.108
  WS02003073           JUNCTION      1.82   555.83     0  03:07      0.0524        5.84       0.086
  WS02004401           JUNCTION      0.00   539.55     0  02:53           0        5.41       0.182
  WS02004402           JUNCTION      0.00   538.86     0  03:04           0         5.4       0.186
  WS02004403           JUNCTION      0.00   540.51     0  03:04           0        5.39       0.181
  WS02004404           JUNCTION      0.16   554.40     0  03:03     0.00467        5.38       0.175
  WS02004405           JUNCTION      0.04   604.87     0  03:01      0.0011        5.38       0.166
  WS02004406           JUNCTION      0.00   544.48     0  03:04           0        5.37       0.376
  WS02004407           JUNCTION      0.00   541.07     0  03:04           0        5.35       0.017
  WS02004409           JUNCTION      0.00   540.40     0  03:04           0        5.35       0.042
  WS02004410           JUNCTION      0.00   539.63     0  03:04           0        5.34       0.073
  WS02004411           JUNCTION      0.00   539.05     0  03:04           0        5.34       0.096
  WS02004412           JUNCTION      0.00   538.79     0  03:05           0        5.34       0.131
  WS02004413           JUNCTION      0.00   538.69     0  03:05           0        5.33       0.235
  WS02006109           JUNCTION      1.23   569.87     0  03:11      0.0354        5.45       0.088
  WS02006110           JUNCTION      0.00   574.03     0  03:11           0        5.45       0.116
  WS02006111           JUNCTION      0.00   567.34     0  03:11           0        5.44       0.009
  WS02006112           JUNCTION      0.00   542.88     0  03:11           0        5.44       0.310
  WS02006113           JUNCTION      0.00   590.43     0  03:11           0        5.44       0.031
  WS02006115           JUNCTION      0.00   554.92     0  03:11           0        5.42       0.114
  WS02006116           JUNCTION      0.00   538.99     0  03:03           0        5.42       0.101
  WS02006228           JUNCTION      0.00   561.08     0  03:11           0        5.42       0.000
  WS02006229           JUNCTION      0.00   564.92     0  03:11           0        5.42       0.083
  WS02006230           JUNCTION     10.28   601.13     0  02:31       0.296        5.42       0.022
  WS02006231           JUNCTION      0.00   614.90     0  02:31           0        5.13       0.052
  WS02006232           JUNCTION      0.00   608.86     0  02:31           0        5.14       0.159
  WS02006234           JUNCTION      0.00   588.30     0  02:31           0        5.13      -0.145
  WS02006235           JUNCTION      0.00   568.47     0  02:51           0        5.16       0.146
  WS02006238           JUNCTION      0.00   425.01     0  03:06           0        4.38      -0.231
  WS02006239           JUNCTION      0.00   424.84     0  03:06           0        4.35      -0.210
  WS02006240           JUNCTION      0.00   422.30     0  03:07           0        4.34      -0.094
  WS02006242           JUNCTION      0.00   422.28     0  03:07           0        4.33      -0.010
  WS02006243           JUNCTION      0.00   421.48     0  03:07           0        4.32      -0.190
  WS02006245           JUNCTION      0.00   421.82     0  03:07           0        4.34       0.402
  WS02006247           JUNCTION      0.00   420.89     0  03:07           0        4.34      -0.003
  WS02006248           JUNCTION      0.00   421.41     0  02:40           0        4.34       0.029
  WS02006249           JUNCTION      0.00   465.55     0  04:50           0         4.5       0.293
  WS02006251           JUNCTION      0.08   410.40     0  03:11     0.00222        4.51       0.031
  WS02006252           JUNCTION      0.00   400.00     0  00:00           0         4.5      -0.160
  WS02006256           JUNCTION      0.00   300.00     0  00:00           0        1.12      -0.990
  WSF200               JUNCTION      0.00   538.37     0  03:06           0        5.31       0.007
  YS02001580           JUNCTION      0.00    88.87     0  02:06           0     0.00403      -0.760
  YS02001583           JUNCTION      0.00   147.05     0  02:05           0      0.0151      -4.659
  YS02001586           JUNCTION    530.88   531.05     0  02:15        1.31        1.32       0.091
  YS02001590           JUNCTION      0.00   318.17     0  02:27           0        1.16      -0.031
  YS02001593           JUNCTION      0.00   318.13     0  02:27           0        1.16       0.014
  YS02001596           JUNCTION      0.00   318.12     0  02:11           0        1.16      -0.004
  YS02001600           JUNCTION      0.00   318.02     0  02:26           0        1.16       0.016
  YS02001601           JUNCTION    956.08  1273.63     0  02:14        1.84        3.01       0.029
  YS02001602           JUNCTION      0.00   507.15     0  02:05           0         2.1       0.024
  YS02001605           JUNCTION      0.00   507.56     0  02:05           0        2.02       0.020
  YS02001607           JUNCTION      0.00   507.71     0  02:05           0        2.02       0.107
  YS02001610           JUNCTION      0.00   509.90     0  02:05           0        2.04       0.122
  YS02001613           JUNCTION      0.00   512.59     0  02:05           0        1.74       0.100
  YS02001616           JUNCTION      0.00   513.54     0  02:05           0        1.74       0.037
  YS02001619           JUNCTION    942.90   942.90     0  02:15        2.09         3.8       0.004
  YS02001622           JUNCTION      0.00   926.33     0  02:08           0        3.77       0.003
  YS02001625           JUNCTION      0.00  1049.10     0  02:15           0        3.82       0.240
  YS02001629           JUNCTION      0.00   925.39     0  02:08           0        3.25       0.028
  YS02001633           JUNCTION    718.46  1371.86     0  02:09        1.34        4.53       0.081
  YS02001641           JUNCTION      0.00  1370.90     0  02:09           0        4.48       0.067
  YS02001644           JUNCTION    642.53  1768.91     0  02:09        1.16        5.63       0.062
  YS02001647           JUNCTION      0.00  1768.20     0  02:09           0        5.56       0.009
  YS02001649           JUNCTION      0.00  1980.27     0  02:08           0        6.61       0.005
  YS02001652           JUNCTION      0.00   709.60     0  02:13           0        1.05      -0.095
  YS02001655           JUNCTION      0.15   709.11     0  02:13     0.00443        1.05      -0.042
  YS02001658           JUNCTION      0.00   707.77     0  02:13           0        1.05      -0.047
  YS02001661           JUNCTION      0.00   822.20     0  02:13           0        1.05       0.022
  YS02001664           JUNCTION    624.83   624.83     0  02:14        1.05        1.05      -0.009
  YS02001745           JUNCTION    399.63   399.63     0  02:13       0.642       0.642       0.205
  YS02001748           JUNCTION      0.04   506.50     0  02:12      0.0013       0.642      -0.289
  YS02001751           JUNCTION      0.01   421.96     0  02:13    0.000317       0.647       0.080
  YS02001754           JUNCTION      0.26   421.22     0  02:13     0.00749       0.658      -0.155
  YS02001757           JUNCTION      0.00  3318.33     0  02:13           0        9.52       0.039
  YS02001759           JUNCTION    554.67  1295.82     0  02:14       0.884        2.25      -0.007
  YS02001762           JUNCTION      0.00   764.67     0  02:15           0        1.37       0.004
  YS02001765           JUNCTION      0.00   764.08     0  02:15           0        1.37       0.011
  YS02001767           JUNCTION      0.54   764.31     0  02:15      0.0154        1.37       0.006
  YS02001770           JUNCTION    786.34   786.34     0  02:14        1.36         1.4      -0.005
  YS02001774           JUNCTION      0.00   292.74     0  02:10           0       0.067       1.865
  YS02001779           JUNCTION      0.01   298.21     0  02:10    0.000144      0.0236      -4.346
  YS02001783           JUNCTION      0.00  1157.91     0  02:13           0        3.62       0.006
  YS02001784           JUNCTION      1.06  1159.28     0  02:12      0.0305        3.65       0.014
  YS02001786           JUNCTION      0.06  1159.10     0  02:13     0.00162        3.65       0.019
  YS02001788           JUNCTION      0.07  1158.97     0  02:13     0.00204        3.65       0.009
  YS02001790           JUNCTION      0.15  1173.13     0  02:12     0.00446        3.66       0.022
  YS02001791           JUNCTION      0.00  1289.28     0  02:11           0        3.66      -0.022
  YS02001793           JUNCTION      0.00  1250.67     0  02:12           0        3.66       0.005
  YS02001882           JUNCTION      0.00    35.50     0  02:07           0      0.0125       5.150
  YS02001884           JUNCTION      0.00    71.13     0  02:07           0      0.0482       5.525
  YS02001887           JUNCTION    603.03   604.56     0  02:13       0.932       0.965       0.462
  YS02001890           JUNCTION      0.00   604.49     0  02:13           0       0.925       0.550
  YS02001895           JUNCTION      0.00   514.80     0  02:15           0       0.901       0.180
  YS02001898           JUNCTION      0.00   514.96     0  02:15           0         0.9       0.025
  YS02001901           JUNCTION      0.00   514.97     0  02:15           0       0.902       0.369
  YS02001904           JUNCTION      0.00   515.10     0  02:15           0       0.906       0.322
  YS02001907           JUNCTION      0.00  1597.01     0  02:14           0        2.95       0.618
  YS02001910           JUNCTION      0.00  1084.13     0  02:14           0        2.05       0.354
  YS02001915           JUNCTION    696.07  1083.07     0  02:14        1.29        2.09       0.081
  YS02001918           JUNCTION      0.00   445.83     0  02:11           0       0.821       0.002
  YS02001920           JUNCTION      2.87   445.47     0  02:11      0.0827       0.806       0.142
  YS02001923           JUNCTION      0.04   415.88     0  02:10     0.00109       0.707      -0.126
  YS02001926           JUNCTION      0.05   411.02     0  02:10      0.0015       0.688       0.063
  YS02001929           JUNCTION    338.00   352.50     0  02:10       0.678       0.679      -0.112
  YS02006553           JUNCTION      0.00   806.25     0  02:27           0        2.31       0.519
  YS02006556           JUNCTION      0.00   806.90     0  02:27           0        2.32       0.362
  YS02006558           JUNCTION    804.31  1159.77     0  02:09        1.36        3.65       0.099
  YS02006561           JUNCTION      0.00  1159.90     0  02:09           0        3.62      -0.002
  YS02163301           JUNCTION      0.00   925.10     0  02:08           0        3.25       0.059
  YS02163601           JUNCTION      0.11  1372.68     0  02:09     0.00317        4.48       0.118
  YS02164001           JUNCTION      0.00  1373.89     0  02:09           0        4.47       0.058
  CC-1                 OUTFALL       0.00   683.00     0  00:00           0         2.6       0.000
  CC-2                 OUTFALL       0.00   683.00     0  00:00           0        3.24       0.000
  JK-1                 OUTFALL       0.00  1000.00     0  00:00           0        1.79       0.000
  JK-2                 OUTFALL       0.00  1000.00     0  00:00           0       0.821       0.000
  WSC                  OUTFALL       0.00   555.41     0  03:08           0        5.83       0.000
  CC-storage           STORAGE       0.00  3320.50     0  02:13           0        11.7      -0.240
  JK-storage           STORAGE       0.00  1253.57     0  02:20           0        3.81      -0.276
  
  
  **********************
  Node Surcharge Summary
  **********************
  
  Surcharging occurs when water rises above the top of the highest conduit.
  ---------------------------------------------------------------------
                                               Max. Height   Min. Depth
                                   Hours       Above Crown    Below Rim
  Node                 Type      Surcharged         Meters       Meters
  ---------------------------------------------------------------------
  WS02004404           JUNCTION        0.01          0.026        2.754
  WS02006109           JUNCTION        1.77          0.540        1.280
  WS02006110           JUNCTION        0.46          0.611        1.239
  WS02006112           JUNCTION        0.66          0.108        1.572
  WS02006228           JUNCTION        1.77          0.452        1.748
  WS02006229           JUNCTION        1.78          0.509        1.941
  WS02006230           JUNCTION        0.49          0.482        1.088
  WS02006231           JUNCTION        0.61          0.586        0.944
  WS02006232           JUNCTION        1.90          0.886        0.594
  WS02006234           JUNCTION        0.88          1.240        0.000
  WS02006235           JUNCTION        1.75          1.290        0.000
  WS02006238           JUNCTION        1.81          1.430        0.000
  WS02006239           JUNCTION        1.75          1.290        0.000
  WS02006240           JUNCTION        1.76          1.390        0.000
  WS02006242           JUNCTION        1.92          0.820        0.000
  WS02006243           JUNCTION        1.77          0.770        0.000
  WS02006245           JUNCTION        1.76          0.850        0.000
  WS02006247           JUNCTION        1.78          0.760        0.000
  WS02006248           JUNCTION        1.74          0.380        0.000
  WS02006249           JUNCTION        1.76          0.390        0.000
  WS02006251           JUNCTION        0.67          0.355        0.825
  WS02006252           JUNCTION        2.50          1.100        0.000
  WS02006256           JUNCTION        5.66          2.050        0.000
  YS02001580           JUNCTION        0.48          0.450        0.000
  YS02001583           JUNCTION        0.49          0.500        0.000
  YS02001586           JUNCTION        0.60          0.510        0.000
  YS02001590           JUNCTION        0.68          0.750        0.000
  YS02001593           JUNCTION        0.69          0.706        0.134
  YS02001596           JUNCTION        0.79          0.953        0.117
  YS02001600           JUNCTION        0.94          1.190        0.000
  YS02001601           JUNCTION        1.31          1.440        0.000
  YS02001602           JUNCTION        1.20          1.270        0.000
  YS02001605           JUNCTION        1.15          1.180        0.000
  YS02001607           JUNCTION        0.65          0.645        0.035
  YS02001610           JUNCTION        0.67          0.680        0.000
  YS02001613           JUNCTION        0.64          0.681        0.019
  YS02001616           JUNCTION        0.60          0.610        0.000
  YS02001619           JUNCTION        0.58          0.610        0.000
  YS02001622           JUNCTION        0.58          0.596        0.024
  YS02001625           JUNCTION        0.76          0.780        0.000
  YS02001629           JUNCTION        0.52          0.470        0.000
  YS02001633           JUNCTION        0.77          1.060        0.000
  YS02001641           JUNCTION        0.69          0.950        0.150
  YS02001644           JUNCTION        0.65          0.920        0.000
  YS02001647           JUNCTION        0.45          0.738        0.162
  YS02001649           JUNCTION        0.55          0.934        0.116
  YS02001652           JUNCTION        0.37          0.778        0.352
  YS02001655           JUNCTION        0.25          0.630        0.570
  YS02001658           JUNCTION        0.11          0.568        0.732
  YS02001661           JUNCTION        0.01          0.123        1.267
  YS02001748           JUNCTION        0.02          0.504        0.686
  YS02001751           JUNCTION        0.16          0.449        0.751
  YS02001754           JUNCTION        0.27          0.593        0.557
  YS02001757           JUNCTION        0.59          0.932        0.278
  YS02001759           JUNCTION        0.50          0.910        0.300
  YS02001762           JUNCTION        0.47          0.902        0.248
  YS02001765           JUNCTION        0.43          0.876        0.224
  YS02001767           JUNCTION        0.41          0.863        0.167
  YS02001770           JUNCTION        0.38          0.884        0.036
  YS02001774           JUNCTION        0.45          0.979        0.071
  YS02001779           JUNCTION        0.28          0.680        0.000
  YS02001783           JUNCTION        0.45          0.436        1.164
  YS02001784           JUNCTION        0.42          0.324        1.166
  YS02001786           JUNCTION        0.32          0.085        1.345
  YS02001882           JUNCTION        0.39          0.644        0.186
  YS02001884           JUNCTION        0.41          0.677        0.193
  YS02001887           JUNCTION        0.44          0.763        0.187
  YS02001890           JUNCTION        0.45          0.760        0.000
  YS02001895           JUNCTION        0.38          0.582        0.168
  YS02001898           JUNCTION        0.38          0.561        0.179
  YS02001901           JUNCTION        0.42          0.693        0.177
  YS02001904           JUNCTION        0.42          0.645        0.205
  YS02001907           JUNCTION        0.67          0.950        0.000
  YS02001910           JUNCTION        0.48          0.971        0.129
  YS02001915           JUNCTION        0.39          0.918        0.082
  YS02001918           JUNCTION        0.31          0.810        0.000
  YS02001920           JUNCTION        0.32          1.067        0.073
  YS02001923           JUNCTION        0.01          0.773        0.047
  YS02001926           JUNCTION        0.03          0.900        0.000
  YS02001929           JUNCTION        0.01          0.780        0.000
  YS02006553           JUNCTION        0.69          0.973        0.217
  YS02006556           JUNCTION        0.57          0.905        0.445
  YS02006558           JUNCTION        0.56          0.889        0.511
  YS02006561           JUNCTION        0.28          0.099        1.051
  YS02163301           JUNCTION        0.75          0.925        0.105
  YS02163601           JUNCTION        0.80          1.021        0.059
  YS02164001           JUNCTION        0.70          0.947        0.153
  
  
  *********************
  Node Flooding Summary
  *********************
  
  Flooding refers to all water that overflows a node, whether it ponds or not.
  --------------------------------------------------------------------------
                                                             Total   Maximum
                                 Maximum   Time of Max       Flood    Ponded
                        Hours       Rate    Occurrence      Volume     Depth
  Node                 Flooded       LPS   days hr:min    10^6 ltr    Meters
  --------------------------------------------------------------------------
  WS02006234              0.01      1.28      0  03:11       0.000     0.000
  WS02006235              0.01      3.63      0  03:11       0.000     0.000
  WS02006238              0.01      3.60      0  03:11       0.000     0.000
  WS02006239              0.01      2.50      0  02:31       0.000     0.000
  WS02006240              0.01      4.94      0  02:31       0.000     0.000
  WS02006242              0.01     20.63      0  02:31       0.000     0.000
  WS02006243              0.01      3.88      0  02:31       0.000     0.000
  WS02006245              0.01      5.04      0  02:31       0.000     0.000
  WS02006247              0.01      5.17      0  02:31       0.000     0.000
  WS02006248              0.01     27.73      0  02:31       0.000     0.000
  WS02006249              0.64    120.76      0  03:11       0.152     0.000
  WS02006252              0.01    261.68      0  05:35       0.000     0.000
  WS02006256              1.04    293.19      0  00:00       0.341     0.000
  YS02001580              0.01     68.87      0  02:06       0.000     0.000
  YS02001583              0.01     58.98      0  02:06       0.000     0.000
  YS02001586              0.35    213.62      0  02:15       0.146     0.000
  YS02001590              0.01     16.26      0  02:04       0.000     0.000
  YS02001600              0.01      1.44      0  02:06       0.000     0.000
  YS02001601              0.54    875.75      0  02:14       0.905     0.000
  YS02001602              0.41     61.97      0  02:29       0.082     0.000
  YS02001605              0.01      0.76      0  02:31       0.000     0.000
  YS02001610              0.36    433.56      0  02:16       0.329     0.000
  YS02001616              0.01      0.10      0  02:09       0.000     0.000
  YS02001619              0.01      2.19      0  02:09       0.000     0.000
  YS02001625              0.33   1048.91      0  02:15       0.610     0.000
  YS02001629              0.06    106.93      0  02:13       0.013     0.000
  YS02001633              0.01      7.45      0  02:31       0.000     0.000
  YS02001644              0.08    362.29      0  02:13       0.063     0.000
  YS02001779              0.05    199.02      0  02:10       0.006     0.000
  YS02001890              0.10     97.21      0  02:13       0.018     0.000
  YS02001907              0.25   1235.15      0  02:14       0.631     0.000
  YS02001918              0.01     78.53      0  02:10       0.001     0.000
  YS02001926              0.01     38.74      0  02:10       0.000     0.000
  YS02001929              0.01    279.90      0  02:10       0.001     0.000
  
  
  **********************
  Storage Volume Summary
  **********************
  
  ------------------------------------------------------------------------------------------------
                         Average    Avg   Evap  Exfil     Maximum    Max    Time of Max    Maximum
                          Volume   Pcnt   Pcnt   Pcnt      Volume   Pcnt     Occurrence    Outflow
  Storage Unit           1000 m³   Full   Loss   Loss     1000 m³   Full    days hr:min        LPS
  ------------------------------------------------------------------------------------------------
  CC-storage               2.267   35.4    0.0    0.0       4.148   64.7       0  02:36    1783.53
  JK-storage               0.148   50.6    0.0    0.0       0.213   72.9       0  02:11    2300.00
  
  
  ***********************
  Outfall Loading Summary
  ***********************
  
  -----------------------------------------------------------
                         Flow       Avg       Max       Total
                         Freq      Flow      Flow      Volume
  Outfall Node           Pcnt       LPS       LPS    10^6 ltr
  -----------------------------------------------------------
  CC-1                  15.09    683.00    683.00       2.601
  CC-2                  17.70    683.00    683.00       3.243
  JK-1                   8.32   1000.00   1000.00       1.791
  JK-2                   3.31   1000.00   1000.00       0.821
  WSC                   99.96    272.60    555.41       5.831
  -----------------------------------------------------------
  System                28.87   3638.60   3894.86      14.287
  
  
  ********************
  Link Flow Summary
  ********************
  
  -----------------------------------------------------------------------------
                                 Maximum  Time of Max   Maximum    Max/    Max/
                                  |Flow|   Occurrence   |Veloc|    Full    Full
  Link                 Type          LPS  days hr:min     m/sec    Flow   Depth
  -----------------------------------------------------------------------------
  1                    CONDUIT    555.41     0  03:08      2.83    0.19    0.30
  WS02003060WS02003069 CONDUIT    554.86     0  03:06      1.64    0.22    0.34
  WS02003066WSF200     CONDUIT    538.37     0  03:06      2.85    0.09    0.22
  WS02003067WS02003066 CONDUIT    538.26     0  03:06      1.21    0.17    0.42
  WS02003069WS02003072 CONDUIT    554.42     0  03:07      1.37    0.27    0.39
  WS02003072WS02003073 CONDUIT    554.00     0  03:07      1.44    1.20    0.37
  WS02004401WS02004402 CONDUIT    538.86     0  03:04      0.98    0.65    0.89
  WS02004402WS02004403 CONDUIT    540.51     0  03:04      0.97    0.78    0.91
  WS02004403WS02004404 CONDUIT    554.23     0  03:03      0.92    0.40    0.96
  WS02004404WS02004405 CONDUIT    604.83     0  03:01      1.08    5.93    0.98
  WS02004405WS02004406 CONDUIT    544.48     0  03:04      0.99    1.07    0.96
  WS02004406WS02004407 CONDUIT    541.07     0  03:04      1.04    0.24    0.63
  WS02004407WS02004409 CONDUIT    540.40     0  03:04      1.49    0.19    0.48
  WS02004409WS02004410 CONDUIT    539.63     0  03:04      0.97    0.70    0.68
  WS02004410WS02004411 CONDUIT    539.05     0  03:04      0.94    0.74    0.69
  WS02004411WS02004412 CONDUIT    538.79     0  03:05      0.93    0.77    0.69
  WS02004412WS02004413 CONDUIT    538.69     0  03:05      0.82    0.36    0.78
  WS02004413WS02003067 CONDUIT    538.12     0  03:05      1.11    0.23    0.59
  WS02006109WS02006110 CONDUIT    574.03     0  03:11      1.14    1.10    1.00
  WS02006110WS02006113 CONDUIT    590.43     0  03:11      1.41    0.54    0.79
  WS02006111WS02006112 CONDUIT    542.88     0  03:11      1.81    0.26    0.67
  WS02006112WS02006115 CONDUIT    554.92     0  03:11      0.81    0.33    0.88
  WS02006113WS02006111 CONDUIT    567.34     0  03:11      2.48    0.68    0.47
  WS02006115WS02006116 CONDUIT    538.99     0  03:03      1.01    0.69    0.78
  WS02006116WS02004401 CONDUIT    539.55     0  02:53      0.98    0.74    0.86
  WS02006228WS02006109 CONDUIT    568.64     0  03:11      1.13    2.48    1.00
  WS02006229WS02006228 CONDUIT    561.08     0  03:11      1.14    1.86    1.00
  WS02006230WS02006229 CONDUIT    564.92     0  03:11      1.47   12.57    1.00
  WS02006231WS02006230 CONDUIT    590.85     0  02:31      1.62    8.96    1.00
  WS02006232WS02006231 CONDUIT    614.90     0  02:31      1.60    1.29    1.00
  WS02006234WS02006232 CONDUIT    608.86     0  02:31      1.58    1.23    1.00
  WS02006235WS02006234 CONDUIT    588.30     0  02:31      1.53    6.21    1.00
  WS02006238WS02006235 CONDUIT    426.88     0  02:40      1.50    0.95    1.00
  WS02006239WS02006238 CONDUIT    425.01     0  03:06      1.19    1.36    1.00
  WS02006240WS02006239 CONDUIT    424.84     0  03:06      1.28    1.34    1.00
  WS02006242WS02006240 CONDUIT    422.30     0  03:07      1.17    1.68    1.00
  WS02006243WS02006242 CONDUIT    422.28     0  03:07      1.43    0.90    1.00
  WS02006245WS02006243 CONDUIT    421.48     0  03:07      1.45    1.25    1.00
  WS02006247WS02006245 CONDUIT    421.82     0  03:07      1.43    3.34    1.00
  WS02006248WS02006247 CONDUIT    420.89     0  03:07      1.44    0.92    1.00
  WS02006249WS02006248 CONDUIT    421.41     0  02:40      1.39    2.31    1.00
  WS02006251WS02006249 CONDUIT    465.55     0  04:50      1.99    1.34    1.00
  WS02006252WS02006251 CONDUIT    410.32     0  03:11     25.12    1.51    1.00
  WS02006256WS02006235 CONDUIT    288.91     0  00:00      4.23    3.06    1.00
  WSF200WS02003060     CONDUIT    538.75     0  03:06      2.06    0.12    0.28
  YS02001580YS02001583 CONDUIT     88.87     0  02:06      0.61    0.34    1.00
  YS02001583YS02001586 CONDUIT    147.05     0  02:05      0.61    0.22    1.00
  YS02001586YS02001590 CONDUIT    318.17     0  02:27      1.25    0.56    1.00
  YS02001590YS02001593 CONDUIT    318.13     0  02:27      1.13    2.00    1.00
  YS02001593YS02001596 CONDUIT    318.12     0  02:11      1.74    0.50    1.00
  YS02001596YS02001600 CONDUIT    318.02     0  02:26      1.23    0.62    1.00
  YS02001600YS02001601 CONDUIT    317.99     0  02:27      1.12    0.55    1.00
  YS02001601YS02001602 CONDUIT    507.15     0  02:05      1.79    1.83    1.00
  YS02001602YS02001605 CONDUIT    507.56     0  02:05      1.80   10.74    1.00
  YS02001605YS02001607 CONDUIT    507.71     0  02:05      1.80    2.78    1.00
  YS02001607YS02001610 CONDUIT    509.90     0  02:05      0.65    0.48    1.00
  YS02001610YS02001613 CONDUIT    512.59     0  02:05      0.65    0.59    1.00
  YS02001613YS02001616 CONDUIT    513.54     0  02:05      0.66    0.44    1.00
  YS02001616YS02001619 CONDUIT    501.95     0  02:05      0.66    0.87    1.00
  YS02001619YS02001622 CONDUIT    926.33     0  02:08      1.18    1.37    1.00
  YS02001622YS02001625 CONDUIT    925.93     0  02:09      1.18    0.49    1.00
  YS02001625YS02001629 CONDUIT    925.39     0  02:08      1.18    0.44    1.00
  YS02001629YS02163301 CONDUIT    925.10     0  02:08      1.18    1.14    1.00
  YS02001633YS02163601 CONDUIT   1372.57     0  02:09      1.75    1.44    1.00
  YS02001641YS02001644 CONDUIT   1369.31     0  02:09      1.74    4.43    1.00
  YS02001644YS02001647 CONDUIT   1768.20     0  02:09      2.26    1.04    1.00
  YS02001647YS02001649 CONDUIT   1765.96     0  02:09      2.31    0.93    1.00
  YS02001649YS02001757 CONDUIT   1962.58     0  02:11      2.51    1.19    1.00
  YS02001652YS02001649 CONDUIT    710.05     0  02:13      0.90    0.35    1.00
  YS02001655YS02001652 CONDUIT    709.60     0  02:13      1.29    0.34    1.00
  YS02001658YS02001655 CONDUIT    708.96     0  02:13      1.87    0.30    1.00
  YS02001661YS02001658 CONDUIT    707.77     0  02:13      2.29    0.28    1.00
  YS02001664YS02001661 CONDUIT    822.20     0  02:13      2.28    0.26    0.73
  YS02001745YS02001748 CONDUIT    506.46     0  02:12      2.15    0.19    0.84
  YS02001748YS02001751 CONDUIT    421.95     0  02:13      1.69    0.21    1.00
  YS02001751YS02001754 CONDUIT    420.96     0  02:13      1.42    0.20    1.00
  YS02001754YS02001757 CONDUIT    421.14     0  02:13      0.54    0.17    1.00
  YS02001757CaochengTiaoxuchi CONDUIT   3320.50     0  02:13      4.23    1.44    1.00
  YS02001759YS02001757 CONDUIT   1295.80     0  02:14      1.65    0.92    1.00
  YS02001762YS02001759 CONDUIT    765.17     0  02:15      0.97    0.88    1.00
  YS02001765YS02001762 CONDUIT    764.67     0  02:15      0.97    0.72    1.00
  YS02001767YS02001765 CONDUIT    764.08     0  02:15      0.97    0.96    1.00
  YS02001770YS02001767 CONDUIT    763.77     0  02:15      0.97    3.03    1.00
  YS02001774YS02001770 CONDUIT    292.74     0  02:10      0.37    0.19    1.00
  YS02001779YS02001774 CONDUIT    298.21     0  02:10      0.39    0.15    1.00
  YS02001783YS02001784 CONDUIT   1158.22     0  02:12      2.30    1.60    1.00
  YS02001784YS02001785 CONDUIT   1159.05     0  02:13      2.31    2.70    1.00
  YS02001786YS02001788 CONDUIT   1158.90     0  02:13      2.47    2.23    0.89
  YS02001788YS02001790 CONDUIT   1172.98     0  02:12      2.71    0.86    0.84
  YS02001790YS02001791 CONDUIT   1289.28     0  02:11      3.43    1.40    0.70
  YS02001791YS02001793 CONDUIT   1250.67     0  02:12      6.78    0.54    0.45
  YS02001793JiankangQianchi CONDUIT   1253.57     0  02:20      2.51    0.10    0.66
  YS02001882YS02001884 CONDUIT     35.50     0  02:07      0.11    0.04    1.00
  YS02001884YS02001887 CONDUIT     71.13     0  02:07      0.09    0.09    1.00
  YS02001887YS02001890 CONDUIT    604.49     0  02:13      0.77    1.03    1.00
  YS02001890YS02001895 CONDUIT    514.80     0  02:15      0.66    0.24    1.00
  YS02001895YS02001898 CONDUIT    514.96     0  02:15      0.66    0.89    1.00
  YS02001898YS02001901 CONDUIT    514.97     0  02:15      0.66    0.33    1.00
  YS02001901YS02001904 CONDUIT    515.10     0  02:15      0.66    0.80    1.00
  YS02001904YS02001907 CONDUIT    514.80     0  02:15      0.66    0.18    1.00
  YS02001907YS02006553 CONDUIT    806.25     0  02:27      0.90    0.95    1.00
  YS02001910YS02001907 CONDUIT   1083.90     0  02:14      1.38    0.61    1.00
  YS02001915YS02001910 CONDUIT   1084.13     0  02:14      1.38    0.54    1.00
  YS02001918YS02001915 CONDUIT    447.09     0  02:11      0.57    0.25    1.00
  YS02001920YS02001918 CONDUIT    445.83     0  02:11      0.64    0.43    1.00
  YS02001923YS02001920 CONDUIT    442.60     0  02:11      0.69    0.20    1.00
  YS02001926YS02001923 CONDUIT    415.84     0  02:10      0.96    0.59    1.00
  YS02001929YS02001926 CONDUIT    410.97     0  02:10      1.11    0.20    1.00
  YS02006553YS02006556 CONDUIT    806.90     0  02:27      1.03    0.69    1.00
  YS02006556YS02006558 CONDUIT    809.69     0  02:27      1.03    0.64    1.00
  YS02006558YS02006561 CONDUIT   1159.90     0  02:09      4.10    2.56    1.00
  YS02006561YS02001783 CONDUIT   1157.91     0  02:13      2.30    0.60    1.00
  YS02163301YS02001633 CONDUIT    926.33     0  02:09      1.18    0.87    1.00
  YS02163601YS02164001 CONDUIT   1373.89     0  02:09      1.75    1.22    1.00
  YS02164001YS02001641 CONDUIT   1370.90     0  02:09      1.75    1.87    1.00
  CC-R1                PUMP       683.00     0  00:00              1.00
  CC-R2                PUMP       683.00     0  00:00              1.00
  CC-S1                PUMP       200.00     0  00:00              1.00
  CC-S2                PUMP       200.00     0  00:00              1.00
  JK-R1                PUMP      1000.00     0  00:00              1.00
  JK-R2                PUMP      1000.00     0  00:00              1.00
  JK-S                 PUMP       300.00     0  00:00              1.00
  
  
  ***************************
  Flow Classification Summary
  ***************************
  
  -------------------------------------------------------------------------------------
                      Adjusted    ---------- Fraction of Time in Flow Class ---------- 
                       /Actual         Up    Down  Sub   Sup   Up    Down  Norm  Inlet 
  Conduit               Length    Dry  Dry   Dry   Crit  Crit  Crit  Crit  Ltd   Ctrl  
  -------------------------------------------------------------------------------------
  1                       1.00   0.00  0.00  0.00  0.00  1.00  0.00  0.00  0.47  0.00
  WS02003060WS02003069    1.00   0.00  0.00  0.00  0.97  0.03  0.00  0.00  0.64  0.00
  WS02003066WSF200        1.00   0.13  0.00  0.00  0.00  0.87  0.00  0.00  0.79  0.00
  WS02003067WS02003066    1.00   0.10  0.02  0.00  0.88  0.00  0.00  0.00  0.00  0.00
  WS02003069WS02003072    1.00   0.00  0.00  0.00  0.99  0.01  0.00  0.00  0.73  0.00
  WS02003072WS02003073    1.00   0.00  0.00  0.00  0.00  0.00  0.00  1.00  0.00  0.00
  WS02004401WS02004402    1.00   0.02  0.00  0.00  0.98  0.00  0.00  0.00  0.00  0.00
  WS02004402WS02004403    1.00   0.02  0.00  0.00  0.97  0.00  0.00  0.00  0.00  0.00
  WS02004403WS02004404    1.00   0.00  0.03  0.00  0.97  0.00  0.00  0.00  0.00  0.00
  WS02004404WS02004405    1.00   0.00  0.00  0.00  1.00  0.00  0.00  0.00  0.01  0.00
  WS02004405WS02004406    1.00   0.00  0.00  0.00  1.00  0.00  0.00  0.00  0.00  0.00
  WS02004406WS02004407    1.00   0.00  0.05  0.00  0.95  0.00  0.00  0.00  0.00  0.00
  WS02004407WS02004409    1.00   0.05  0.00  0.00  0.94  0.01  0.00  0.00  0.94  0.00
  WS02004409WS02004410    1.00   0.05  0.00  0.00  0.95  0.00  0.00  0.00  0.03  0.00
  WS02004410WS02004411    1.00   0.05  0.00  0.00  0.95  0.00  0.00  0.00  0.01  0.00
  WS02004411WS02004412    1.00   0.05  0.00  0.00  0.95  0.00  0.00  0.00  0.00  0.00
  WS02004412WS02004413    1.00   0.05  0.00  0.00  0.94  0.00  0.00  0.00  0.01  0.00
  WS02004413WS02003067    1.00   0.06  0.04  0.00  0.00  0.00  0.90  0.00  0.00  0.00
  WS02006109WS02006110    1.00   0.00  0.01  0.00  0.98  0.00  0.01  0.00  0.00  0.00
  WS02006110WS02006113    1.00   0.01  0.01  0.00  0.98  0.00  0.00  0.00  0.00  0.00
  WS02006111WS02006112    1.00   0.02  0.00  0.00  0.98  0.00  0.00  0.00  0.98  0.00
  WS02006112WS02006115    1.00   0.02  0.00  0.00  0.97  0.00  0.00  0.00  0.00  0.00
  WS02006113WS02006111    1.00   0.02  0.00  0.00  0.00  0.98  0.00  0.00  0.16  0.00
  WS02006115WS02006116    1.00   0.02  0.00  0.00  0.97  0.00  0.00  0.01  0.00  0.00
  WS02006116WS02004401    1.00   0.02  0.00  0.00  0.98  0.00  0.00  0.00  0.00  0.00
  WS02006228WS02006109    1.00   0.00  0.00  0.00  1.00  0.00  0.00  0.00  0.01  0.00
  WS02006229WS02006228    1.00   0.00  0.00  0.00  0.99  0.00  0.00  0.01  0.00  0.00
  WS02006230WS02006229    1.00   0.00  0.00  0.00  0.99  0.00  0.00  0.01  0.02  0.00
  WS02006231WS02006230    1.00   0.00  0.00  0.00  0.29  0.00  0.71  0.00  0.00  0.00
  WS02006232WS02006231    1.00   0.00  0.00  0.00  0.99  0.00  0.01  0.00  0.00  0.00
  WS02006234WS02006232    1.00   0.00  0.00  0.00  1.00  0.00  0.00  0.00  0.19  0.00
  WS02006235WS02006234    1.00   0.00  0.00  0.00  0.76  0.00  0.24  0.00  0.00  0.00
  WS02006238WS02006235    1.00   0.00  0.00  0.00  1.00  0.00  0.00  0.00  0.00  0.00
  WS02006239WS02006238    1.00   0.00  0.00  0.00  1.00  0.00  0.00  0.00  0.29  0.00
  WS02006240WS02006239    1.00   0.00  0.00  0.00  0.64  0.00  0.00  0.36  0.01  0.00
  WS02006242WS02006240    1.00   0.00  0.00  0.00  0.99  0.00  0.01  0.00  0.00  0.00
  WS02006243WS02006242    1.00   0.00  0.00  0.00  0.99  0.00  0.00  0.01  0.46  0.00
  WS02006245WS02006243    1.00   0.00  0.00  0.00  0.70  0.00  0.00  0.30  0.01  0.00
  WS02006247WS02006245    1.00   0.00  0.00  0.00  0.98  0.00  0.00  0.02  0.00  0.00
  WS02006248WS02006247    1.00   0.00  0.00  0.00  0.99  0.00  0.00  0.01  0.22  0.00
  WS02006249WS02006248    1.00   0.00  0.00  0.00  0.55  0.00  0.45  0.00  0.00  0.00
  WS02006251WS02006249    1.00   0.00  0.00  0.00  0.99  0.01  0.00  0.00  0.47  0.00
  WS02006252WS02006251    1.00   0.00  0.45  0.00  0.08  0.00  0.47  0.00  0.00  0.00
  WS02006256WS02006235    1.00   0.00  0.00  0.00  1.00  0.00  0.00  0.00  0.00  0.00
  WSF200WS02003060        1.00   0.00  0.13  0.00  0.28  0.59  0.00  0.00  0.44  0.00
  YS02001580YS02001583    1.00   0.26  0.57  0.00  0.18  0.00  0.00  0.00  0.66  0.00
  YS02001583YS02001586    1.00   0.42  0.35  0.00  0.23  0.00  0.00  0.00  0.66  0.00
  YS02001586YS02001590    1.00   0.13  0.00  0.00  0.42  0.04  0.00  0.41  0.38  0.00
  YS02001590YS02001593    1.00   0.13  0.01  0.00  0.10  0.00  0.77  0.00  0.00  0.00
  YS02001593YS02001596    1.00   0.14  0.00  0.00  0.12  0.01  0.00  0.74  0.02  0.00
  YS02001596YS02001600    1.00   0.14  0.00  0.00  0.19  0.01  0.00  0.66  0.05  0.00
  YS02001600YS02001601    1.00   0.13  0.01  0.00  0.86  0.00  0.00  0.00  0.61  0.00
  YS02001601YS02001602    1.00   0.13  0.01  0.00  0.86  0.00  0.00  0.00  0.00  0.00
  YS02001602YS02001605    1.00   0.14  0.00  0.00  0.86  0.00  0.00  0.00  0.00  0.00
  YS02001605YS02001607    1.00   0.14  0.00  0.00  0.86  0.00  0.00  0.00  0.00  0.00
  YS02001607YS02001610    1.00   0.13  0.01  0.00  0.86  0.00  0.00  0.00  0.02  0.00
  YS02001610YS02001613    1.00   0.13  0.00  0.00  0.87  0.00  0.00  0.00  0.01  0.00
  YS02001613YS02001616    1.00   0.13  0.00  0.00  0.87  0.00  0.00  0.00  0.00  0.00
  YS02001616YS02001619    1.00   0.13  0.00  0.00  0.87  0.00  0.00  0.00  0.00  0.00
  YS02001619YS02001622    1.00   0.13  0.00  0.00  0.87  0.00  0.00  0.00  0.29  0.00
  YS02001622YS02001625    1.00   0.13  0.00  0.00  0.87  0.00  0.00  0.00  0.05  0.00
  YS02001625YS02001629    1.00   0.13  0.05  0.00  0.14  0.00  0.67  0.00  0.00  0.00
  YS02001629YS02163301    1.00   0.16  0.01  0.00  0.83  0.00  0.00  0.00  0.00  0.00
  YS02001633YS02163601    1.00   0.00  0.01  0.00  0.99  0.00  0.00  0.00  0.15  0.00
  YS02001641YS02001644    1.00   0.00  0.01  0.00  0.99  0.00  0.00  0.00  0.00  0.00
  YS02001644YS02001647    1.00   0.00  0.18  0.00  0.82  0.00  0.00  0.00  0.00  0.00
  YS02001647YS02001649    1.00   0.00  0.18  0.00  0.51  0.32  0.00  0.00  0.56  0.00
  YS02001649YS02001757    1.00   0.00  0.00  0.00  0.74  0.26  0.00  0.00  0.39  0.00
  YS02001652YS02001649    1.00   0.00  0.00  0.00  0.96  0.04  0.00  0.00  0.76  0.00
  YS02001655YS02001652    1.00   0.00  0.00  0.00  0.16  0.01  0.00  0.82  0.06  0.00
  YS02001658YS02001655    1.00   0.00  0.14  0.00  0.63  0.23  0.00  0.00  0.72  0.00
  YS02001661YS02001658    1.00   0.14  0.00  0.00  0.47  0.39  0.00  0.00  0.73  0.00
  YS02001664YS02001661    1.00   0.13  0.00  0.00  0.76  0.11  0.00  0.00  0.86  0.00
  YS02001745YS02001748    1.00   0.00  0.00  0.00  0.06  0.01  0.00  0.93  0.04  0.00
  YS02001748YS02001751    1.00   0.00  0.00  0.00  0.79  0.21  0.00  0.00  0.78  0.00
  YS02001751YS02001754    1.00   0.00  0.00  0.00  0.13  0.01  0.00  0.87  0.02  0.00
  YS02001754YS02001757    1.00   0.00  0.00  0.00  1.00  0.00  0.00  0.00  0.86  0.00
  YS02001757CaochengTiaoxuchi    1.00   0.00  0.00  0.00  0.97  0.03  0.00  0.00  0.71  0.00
  YS02001759YS02001757    1.00   0.00  0.00  0.00  1.00  0.00  0.00  0.00  0.58  0.00
  YS02001762YS02001759    1.00   0.00  0.00  0.00  1.00  0.00  0.00  0.00  0.05  0.00
  YS02001765YS02001762    1.00   0.00  0.00  0.00  1.00  0.00  0.00  0.00  0.71  0.00
  YS02001767YS02001765    1.00   0.00  0.00  0.00  1.00  0.00  0.00  0.00  0.01  0.00
  YS02001770YS02001767    1.00   0.00  0.00  0.00  1.00  0.00  0.00  0.00  0.00  0.00
  YS02001774YS02001770    1.00   0.00  0.13  0.00  0.70  0.00  0.17  0.00  0.03  0.00
  YS02001779YS02001774    1.00   0.00  0.00  0.00  1.00  0.00  0.00  0.00  0.80  0.00
  YS02001783YS02001784    1.00   0.00  0.19  0.00  0.81  0.00  0.00  0.00  0.56  0.00
  YS02001784YS02001785    1.00   0.00  0.00  0.00  1.00  0.00  0.00  0.00  0.17  0.00
  YS02001786YS02001788    1.00   0.00  0.00  0.00  0.79  0.21  0.00  0.00  0.00  0.00
  YS02001788YS02001790    1.00   0.00  0.00  0.00  0.21  0.79  0.00  0.00  0.81  0.00
  YS02001790YS02001791    1.00   0.00  0.00  0.00  0.01  0.99  0.00  0.00  0.16  0.00
  YS02001791YS02001793    1.00   0.00  0.00  0.00  0.00  1.00  0.00  0.00  0.01  0.00
  YS02001793JiankangQianchi    1.00   0.00  0.00  0.00  0.98  0.02  0.00  0.00  0.98  0.00
  YS02001882YS02001884    1.00   0.15  0.01  0.00  0.84  0.00  0.00  0.00  0.00  0.00
  YS02001884YS02001887    1.00   0.06  0.05  0.00  0.89  0.00  0.00  0.00  0.00  0.00
  YS02001887YS02001890    1.00   0.00  0.00  0.00  0.97  0.00  0.03  0.00  0.00  0.00
  YS02001890YS02001895    1.00   0.00  0.17  0.00  0.83  0.00  0.00  0.00  0.00  0.00
  YS02001895YS02001898    1.00   0.17  0.00  0.00  0.81  0.00  0.02  0.00  0.00  0.00
  YS02001898YS02001901    1.00   0.17  0.00  0.00  0.83  0.00  0.00  0.00  0.01  0.00
  YS02001901YS02001904    1.00   0.17  0.00  0.00  0.83  0.00  0.00  0.00  0.00  0.00
  YS02001904YS02001907    1.00   0.00  0.17  0.00  0.83  0.00  0.00  0.00  0.00  0.00
  YS02001907YS02006553    1.00   0.00  0.02  0.00  0.98  0.00  0.00  0.00  0.00  0.00
  YS02001910YS02001907    1.00   0.00  0.00  0.00  0.97  0.00  0.00  0.03  0.12  0.00
  YS02001915YS02001910    1.00   0.00  0.00  0.00  0.97  0.03  0.00  0.00  0.16  0.00
  YS02001918YS02001915    1.00   0.00  0.01  0.00  0.98  0.02  0.00  0.00  0.76  0.00
  YS02001920YS02001918    1.00   0.00  0.01  0.00  0.99  0.00  0.00  0.00  0.00  0.00
  YS02001923YS02001920    1.00   0.00  0.00  0.00  1.00  0.00  0.00  0.00  0.93  0.00
  YS02001926YS02001923    1.00   0.00  0.07  0.00  0.05  0.00  0.88  0.00  0.00  0.00
  YS02001929YS02001926    1.00   0.00  0.13  0.00  0.87  0.00  0.00  0.00  0.83  0.00
  YS02006553YS02006556    1.00   0.01  0.00  0.00  0.99  0.00  0.00  0.00  0.03  0.00
  YS02006556YS02006558    1.00   0.00  0.00  0.00  1.00  0.00  0.00  0.00  0.00  0.00
  YS02006558YS02006561    1.00   0.18  0.00  0.00  0.05  0.77  0.00  0.00  0.19  0.00
  YS02006561YS02001783    1.00   0.18  0.00  0.00  0.08  0.74  0.00  0.00  0.69  0.00
  YS02163301YS02001633    1.00   0.00  0.16  0.00  0.84  0.00  0.00  0.00  0.00  0.00
  YS02163601YS02164001    1.00   0.00  0.08  0.00  0.92  0.00  0.00  0.00  0.00  0.00
  YS02164001YS02001641    1.00   0.01  0.07  0.00  0.92  0.00  0.00  0.00  0.06  0.00
  
  
  *************************
  Conduit Surcharge Summary
  *************************
  
  ----------------------------------------------------------------------------
                                                           Hours        Hours 
                         --------- Hours Full --------   Above Full   Capacity
  Conduit                Both Ends  Upstream  Dnstream   Normal Flow   Limited
  ----------------------------------------------------------------------------
  WS02003072WS02003073        0.01      0.01      0.01      0.93         0.01
  WS02004403WS02004404        0.01      0.01      0.01      0.01         0.01
  WS02004404WS02004405        0.01      0.01      0.01      4.08         0.01
  WS02004405WS02004406        0.01      0.01      0.01      0.44         0.01
  WS02006109WS02006110        0.45      0.45      1.90      0.58         0.01
  WS02006110WS02006113        0.01      0.01      1.82      0.01         0.01
  WS02006111WS02006112        0.01      0.01      2.91      0.01         0.01
  WS02006112WS02006115        0.01      0.01      0.66      0.01         0.01
  WS02006228WS02006109        1.77      1.90      1.77      3.11         1.77
  WS02006229WS02006228        1.77      1.78      1.77      2.57         1.76
  WS02006230WS02006229        2.17      2.46      2.17      4.53         2.17
  WS02006231WS02006230        0.49      0.49      0.65      4.22         0.01
  WS02006232WS02006231        0.60      0.60      1.90      0.68         0.01
  WS02006234WS02006232        1.73      1.73      1.90      0.65         0.65
  WS02006235WS02006234        0.87      0.88      1.75      4.03         0.02
  WS02006238WS02006235        1.77      1.77      1.91      0.01         0.01
  WS02006239WS02006238        1.80      1.85      1.81      2.23         1.63
  WS02006240WS02006239        1.75      1.78      1.75      2.21         1.57
  WS02006242WS02006240        1.76      1.76      2.05      2.54         0.01
  WS02006243WS02006242        1.78      1.78      1.92      0.01         0.04
  WS02006245WS02006243        1.76      1.77      1.77      1.74         1.26
  WS02006247WS02006245        1.76      1.79      1.76      3.71         1.75
  WS02006248WS02006247        1.75      1.75      1.78      0.01         0.05
  WS02006249WS02006248        1.74      1.74      1.76      3.68         0.01
  WS02006251WS02006249        1.75      1.76      1.76      2.40         1.68
  WS02006252WS02006251        2.49      2.49      2.50      2.50         0.01
  WS02006256WS02006235        4.07      4.11      5.62      1.04         0.01
  YS02001580YS02001583        0.48      0.48      0.53      0.01         0.01
  YS02001583YS02001586        0.49      0.49      0.60      0.01         0.01
  YS02001586YS02001590        0.61      0.61      0.68      0.01         0.01
  YS02001590YS02001593        0.69      0.69      0.70      0.71         0.01
  YS02001593YS02001596        0.69      0.69      0.79      0.01         0.01
  YS02001596YS02001600        0.84      0.84      0.94      0.01         0.01
  YS02001600YS02001601        1.01      1.01      1.31      0.01         0.01
  YS02001601YS02001602        1.20      1.20      1.35      0.96         0.01
  YS02001602YS02001605        1.15      1.15      1.20      2.20         0.01
  YS02001605YS02001607        1.10      1.15      1.10      1.27         1.10
  YS02001607YS02001610        0.65      0.65      0.67      0.01         0.01
  YS02001610YS02001613        0.64      0.64      0.67      0.01         0.01
  YS02001613YS02001616        0.60      0.60      0.64      0.01         0.01
  YS02001616YS02001619        0.58      0.58      0.60      0.01         0.01
  YS02001619YS02001622        0.58      0.58      0.58      0.71         0.55
  YS02001622YS02001625        0.58      0.58      0.76      0.01         0.01
  YS02001625YS02001629        0.52      0.52      0.76      0.01         0.01
  YS02001629YS02163301        0.74      0.74      0.75      0.23         0.22
  YS02001633YS02163601        0.77      0.77      0.80      0.38         0.38
  YS02001641YS02001644        0.65      0.69      0.65      1.39         0.65
  YS02001644YS02001647        0.45      0.45      0.65      0.03         0.01
  YS02001647YS02001649        0.45      0.45      0.55      0.01         0.01
  YS02001649YS02001757        0.55      0.55      0.59      0.19         0.15
  YS02001652YS02001649        0.39      0.39      0.55      0.01         0.01
  YS02001655YS02001652        0.25      0.25      0.37      0.01         0.01
  YS02001658YS02001655        0.11      0.11      0.25      0.01         0.01
  YS02001661YS02001658        0.01      0.01      0.11      0.01         0.01
  YS02001664YS02001661        0.01      0.01      0.01      0.01         0.01
  YS02001745YS02001748        0.01      0.01      0.02      0.01         0.01
  YS02001748YS02001751        0.09      0.09      0.16      0.01         0.01
  YS02001751YS02001754        0.16      0.16      0.27      0.01         0.01
  YS02001754YS02001757        0.32      0.32      0.59      0.01         0.01
  YS02001757CaochengTiaoxuchi        0.55      0.59      1.46      0.33         0.25
  YS02001759YS02001757        0.50      0.50      0.59      0.01         0.01
  YS02001762YS02001759        0.47      0.47      0.50      0.01         0.02
  YS02001765YS02001762        0.43      0.43      0.47      0.01         0.01
  YS02001767YS02001765        0.41      0.41      0.43      0.01         0.03
  YS02001770YS02001767        0.40      0.41      0.41      0.44         0.32
  YS02001774YS02001770        0.38      0.38      0.45      0.01         0.01
  YS02001779YS02001774        0.28      0.28      0.45      0.01         0.01
  YS02001783YS02001784        0.42      0.45      0.42      0.60         0.42
  YS02001784YS02001785        0.32      0.42      0.32      0.83         0.32
  YS02001786YS02001788        0.01      0.32      0.01      0.70         0.01
  YS02001790YS02001791        0.01      0.01      0.01      0.41         0.01
  YS02001793JiankangQianchi        0.01      0.01      7.44      0.01         0.01
  YS02001882YS02001884        0.39      0.39      0.41      0.01         0.01
  YS02001884YS02001887        0.43      0.43      0.44      0.01         0.01
  YS02001887YS02001890        0.45      0.45      0.46      0.03         0.01
  YS02001890YS02001895        0.38      0.38      0.48      0.01         0.01
  YS02001895YS02001898        0.38      0.38      0.38      0.01         0.01
  YS02001898YS02001901        0.39      0.39      0.42      0.01         0.01
  YS02001901YS02001904        0.42      0.42      0.42      0.01         0.01
  YS02001904YS02001907        0.42      0.42      0.69      0.01         0.01
  YS02001907YS02006553        0.84      0.84      0.91      0.01         0.01
  YS02001910YS02001907        0.48      0.48      0.67      0.01         0.01
  YS02001915YS02001910        0.39      0.39      0.48      0.01         0.01
  YS02001918YS02001915        0.31      0.31      0.39      0.01         0.01
  YS02001920YS02001918        0.31      0.31      0.32      0.01         0.01
  YS02001923YS02001920        0.26      0.26      0.32      0.01         0.01
  YS02001926YS02001923        0.01      0.01      0.03      0.01         0.01
  YS02001929YS02001926        0.01      0.01      0.03      0.01         0.01
  YS02006553YS02006556        0.57      0.57      0.69      0.01         0.01
  YS02006556YS02006558        0.63      0.63      0.70      0.01         0.01
  YS02006558YS02006561        0.34      0.56      0.34      0.78         0.34
  YS02006561YS02001783        0.28      0.28      0.45      0.01         0.01
  YS02163301YS02001633        0.75      0.75      0.79      0.01         0.01
  YS02163601YS02164001        0.70      0.70      0.80      0.09         0.01
  YS02164001YS02001641        0.69      0.70      0.69      0.70         0.56
  
  
  ***************
  Pumping Summary
  ***************
  
  ---------------------------------------------------------------------------------------------------------
                                                  Min       Avg       Max     Total     Power    % Time Off
                        Percent   Number of      Flow      Flow      Flow    Volume     Usage    Pump Curve
  Pump                 Utilized   Start-Ups       LPS       LPS       LPS  10^6 ltr     Kw-hr    Low   High
  ---------------------------------------------------------------------------------------------------------
  CC-R1                   13.21           3      0.00    683.00    683.00     2.599     47.75    0.0   22.1
  CC-R2                   16.49           4      0.00    683.00    683.00     3.243     59.18    0.0   19.3
  CC-S1                   43.72          15      0.00    200.00    200.00     2.518     15.77    0.0    0.0
  CC-S2                   34.32          13      0.00    200.00    200.00     1.977     12.53    0.0    0.0
  JK-R1                    6.22          14      0.00   1000.00   1000.00     1.791     19.76    0.0    0.0
  JK-R2                    2.85           7      0.00   1000.00   1000.00     0.821      6.97    0.0    0.0
  JK-S                    12.93          17      0.00    300.00    300.00     1.117     16.63    0.0    0.0
  

  Analysis begun on:  Mon Apr 14 20:58:53 2025
  Analysis ended on:  Mon Apr 14 20:58:55 2025
  Total elapsed time: 00:00:02