
  EPA STORM WATER MANAGEMENT MODEL - VERSION 5.2 (Build 5.2.4)
  PYSWMM TOOLKIT API - VERSION v1.0 (2023-11-27)
  ------------------------------------------------------------

  WARNING 04: minimum elevation drop used for Conduit WS02004404WS02004405
  WARNING 03: negative offset ignored for Link YS02001904YS02001907
  
  ****************
  Analysis Options
  ****************
  Flow Units ............... LPS
  Process Models:
    Rainfall/Runoff ........ YES
    RDII ................... NO
    Snowmelt ............... NO
    Groundwater ............ NO
    Flow Routing ........... YES
    Ponding Allowed ........ NO
    Water Quality .......... NO
  Infiltration Method ...... HORTON
  Flow Routing Method ...... DYNWAVE
  Surcharge Method ......... EXTRAN
  Starting Date ............ 08/28/2015 08:00:00
  Ending Date .............. 08/28/2015 16:00:00
  Antecedent Dry Days ...... 8.0
  Report Time Step ......... 00:01:00
  Wet Time Step ............ 00:01:00
  Dry Time Step ............ 00:01:00
  Routing Time Step ........ 30.00 sec
  Variable Time Step ....... YES
  Maximum Trials ........... 8
  Number of Threads ........ 4
  Head Tolerance ........... 0.001500 m
  
  
  **************************        Volume         Depth
  Runoff Quantity Continuity     hectare-m            mm
  **************************     ---------       -------
  Total Precipitation ......         1.966        59.279
  Evaporation Loss .........         0.000         0.000
  Infiltration Loss ........         0.101         3.059
  Surface Runoff ...........         1.832        55.236
  Final Storage ............         0.033         0.996
  Continuity Error (%) .....        -0.020
  
  
  **************************        Volume        Volume
  Flow Routing Continuity        hectare-m      10^6 ltr
  **************************     ---------     ---------
  Dry Weather Inflow .......         0.025         0.251
  Wet Weather Inflow .......         1.832        18.324
  Groundwater Inflow .......         0.000         0.000
  RDII Inflow ..............         0.000         0.000
  External Inflow ..........         0.083         0.834
  External Outflow .........         1.535        15.354
  Flooding Loss ............         0.475         4.754
  Evaporation Loss .........         0.000         0.000
  Exfiltration Loss ........         0.000         0.000
  Initial Stored Volume ....         0.243         2.431
  Final Stored Volume ......         0.182         1.818
  Continuity Error (%) .....        -0.395
  
  
  *************************
  Highest Continuity Errors
  *************************
  Node YS02001884 (5.14%)
  Node YS02001583 (-4.93%)
  Node WS02006256 (-3.21%)
  
  
  ***************************
  Time-Step Critical Elements
  ***************************
  Link WS02006252WS02006251 (43.28%)
  Link WS02006238WS02006235 (19.25%)
  Link WS02004404WS02004405 (16.24%)
  Link YS02001791YS02001793 (5.53%)
  Link WS02006235WS02006234 (3.30%)
  
  
  ********************************
  Highest Flow Instability Indexes
  ********************************
  Link WS02006113WS02006111 (40)
  Link WS02006238WS02006235 (19)
  Link WS02006256WS02006235 (18)
  Link WS02004404WS02004405 (16)
  Link WS02006252WS02006251 (14)
  
  
  *********************************
  Most Frequent Nonconverging Nodes
  *********************************
  Node CC-1 (11.24%)
  Node CC-2 (11.24%)
  Node JK-1 (11.24%)
  Node JK-2 (11.24%)
  Node WSC (11.24%)
  
  
  *************************
  Routing Time Step Summary
  *************************
  Minimum Time Step           :     0.01 sec
  Average Time Step           :     2.31 sec
  Maximum Time Step           :     6.43 sec
  % of Time in Steady State   :     0.00
  Average Iterations per Step :     3.15
  % of Steps Not Converging   :    11.24
  Time Step Frequencies       :
     30.000 - 13.228 sec      :     0.00 %
     13.228 -  5.833 sec      :    12.12 %
      5.833 -  2.572 sec      :    21.47 %
      2.572 -  1.134 sec      :    18.16 %
      1.134 -  0.500 sec      :    48.26 %
  
  
  ***************************
  Subcatchment Runoff Summary
  ***************************
  
  ------------------------------------------------------------------------------------------------------------------------------
                            Total      Total      Total      Total     Imperv       Perv      Total       Total     Peak  Runoff
                           Precip      Runon       Evap      Infil     Runoff     Runoff     Runoff      Runoff   Runoff   Coeff
  Subcatchment                 mm         mm         mm         mm         mm         mm         mm    10^6 ltr      LPS
  ------------------------------------------------------------------------------------------------------------------------------
  sub60                     59.28       0.00       0.00       1.82      50.96       5.30      56.26        0.74   510.21   0.949
  sub61                     59.28       0.00       0.00       2.64      48.07       7.44      55.51        1.02   709.55   0.936
  sub62                     59.28       0.00       0.00       1.21      53.25       3.53      56.78        1.56   997.70   0.958
  sub63                     59.28       0.00       0.00       4.92      41.12      12.28      53.39        1.21   807.96   0.901
  sub64                     59.28       0.00       0.00       2.48      49.18       6.41      55.59        1.34   817.06   0.938
  sub65                     59.28       0.00       0.00       2.15      50.32       5.56      55.88        1.54   911.82   0.943
  sub66                     59.28       0.00       0.00       6.11      41.01      11.08      52.09        2.43  1224.31   0.879
  sub67                     59.28       0.00       0.00       1.16      53.29       3.58      56.88        1.06   761.37   0.959
  sub68                     59.28       0.00       0.00       2.19      49.79       6.11      55.90        1.54  1024.81   0.943
  sub69                     59.28       0.00       0.00       1.98      50.27       6.92      57.19        2.12  1210.70   0.965
  sub70                     59.28       0.00       0.00       6.60      38.96      13.55      52.51        1.52   687.14   0.886
  sub71                     59.28       0.00       0.00       1.25      53.21       3.50      56.70        1.48   880.61   0.957
  sub72                     59.28       0.00       0.00       1.11      53.72       3.04      56.76        0.78   430.02   0.958
  
  
  ******************
  Node Depth Summary
  ******************
  
  ---------------------------------------------------------------------------------
                                 Average  Maximum  Maximum  Time of Max    Reported
                                   Depth    Depth      HGL   Occurrence   Max Depth
  Node                 Type       Meters   Meters   Meters  days hr:min      Meters
  ---------------------------------------------------------------------------------
  WS02003060           JUNCTION     0.21     0.38     5.31     0  02:36        0.38
  WS02003066           JUNCTION     0.18     0.30     5.85     0  02:38        0.30
  WS02003067           JUNCTION     0.46     0.70     6.02     0  02:38        0.70
  WS02003069           JUNCTION     0.23     0.43     5.01     0  02:39        0.43
  WS02003072           JUNCTION     0.29     0.50     4.87     0  02:38        0.50
  WS02003073           JUNCTION     0.16     0.30     4.36     0  02:40        0.30
  WS02004401           JUNCTION     0.55     0.87     6.87     0  02:30        0.87
  WS02004402           JUNCTION     0.58     0.90     6.86     0  02:29        0.90
  WS02004403           JUNCTION     0.60     0.92     6.85     0  02:29        0.92
  WS02004404           JUNCTION     0.68     1.02     6.87     0  02:30        1.00
  WS02004405           JUNCTION     0.67     0.97     6.82     0  02:30        0.96
  WS02004406           JUNCTION     0.68     0.96     6.79     0  02:31        0.96
  WS02004407           JUNCTION     0.16     0.30     6.61     0  02:31        0.30
  WS02004409           JUNCTION     0.34     0.67     6.44     0  02:36        0.67
  WS02004410           JUNCTION     0.37     0.68     6.40     0  02:37        0.68
  WS02004411           JUNCTION     0.39     0.69     6.37     0  02:37        0.69
  WS02004412           JUNCTION     0.41     0.70     6.34     0  02:37        0.70
  WS02004413           JUNCTION     0.57     0.86     6.33     0  02:37        0.86
  WS02006109           JUNCTION     0.60     1.08     7.70     0  02:53        0.98
  WS02006110           JUNCTION     0.61     1.09     7.68     0  02:36        0.93
  WS02006111           JUNCTION     0.16     0.29     6.99     0  02:38        0.29
  WS02006112           JUNCTION     0.69     1.08     6.96     0  02:31        1.08
  WS02006113           JUNCTION     0.24     0.46     7.35     0  02:37        0.46
  WS02006115           JUNCTION     0.43     0.77     6.91     0  02:30        0.77
  WS02006116           JUNCTION     0.52     0.85     6.89     0  02:30        0.85
  WS02006228           JUNCTION     0.59     1.11     7.76     0  02:36        1.02
  WS02006229           JUNCTION     0.56     1.12     7.81     0  02:36        1.03
  WS02006230           JUNCTION     0.55     1.27     8.01     0  02:36        1.16
  WS02006231           JUNCTION     0.37     1.21     8.34     0  02:35        0.92
  WS02006232           JUNCTION     0.50     1.31     8.35     0  02:35        1.13
  WS02006234           JUNCTION     0.42     1.53     8.68     0  02:30        1.16
  WS02006235           JUNCTION     0.45     1.48     8.65     0  02:30        1.27
  WS02006238           JUNCTION     0.48     1.53     8.67     0  02:30        1.32
  WS02006239           JUNCTION     0.44     1.50     8.71     0  02:30        1.33
  WS02006240           JUNCTION     0.41     1.47     8.76     0  02:30        1.31
  WS02006242           JUNCTION     0.47     1.51     8.78     0  02:30        1.38
  WS02006243           JUNCTION     0.38     1.35     8.77     0  02:30        1.26
  WS02006245           JUNCTION     0.38     1.27     8.75     0  02:35        1.21
  WS02006247           JUNCTION     0.40     1.23     8.73     0  02:35        1.20
  WS02006248           JUNCTION     0.36     1.10     8.69     0  02:30        1.10
  WS02006249           JUNCTION     0.39     1.09     8.69     0  02:13        1.09
  WS02006251           JUNCTION     0.39     1.45     9.12     0  02:52        1.30
  WS02006252           JUNCTION     0.29     1.50     9.74     0  00:00        0.86
  WS02006256           JUNCTION     0.94     2.35     9.28     0  00:00        2.35
  WSF200               JUNCTION     0.15     0.29     5.52     0  02:35        0.29
  YS02001580           JUNCTION     0.10     1.05     9.59     0  02:13        0.77
  YS02001583           JUNCTION     0.13     0.97     9.47     0  02:13        0.82
  YS02001586           JUNCTION     0.23     1.13     9.30     0  02:13        1.13
  YS02001590           JUNCTION     0.34     1.40     9.26     0  02:13        1.37
  YS02001593           JUNCTION     0.26     1.33     9.20     0  02:13        1.29
  YS02001596           JUNCTION     0.36     1.69     9.11     0  02:13        1.65
  YS02001600           JUNCTION     0.45     1.87     9.00     0  02:13        1.87
  YS02001601           JUNCTION     0.66     2.06     8.90     0  02:12        2.06
  YS02001602           JUNCTION     0.57     1.87     8.77     0  02:16        1.87
  YS02001605           JUNCTION     0.52     1.78     8.68     0  02:26        1.78
  YS02001607           JUNCTION     0.50     1.68     8.53     0  02:21        1.68
  YS02001610           JUNCTION     0.54     1.68     8.48     0  02:17        1.68
  YS02001613           JUNCTION     0.50     1.66     8.50     0  02:25        1.66
  YS02001616           JUNCTION     0.43     1.61     8.52     0  02:20        1.61
  YS02001619           JUNCTION     0.41     1.61     8.54     0  02:20        1.61
  YS02001622           JUNCTION     0.39     1.59     8.49     0  02:26        1.59
  YS02001625           JUNCTION     0.65     1.78     8.38     0  02:17        1.78
  YS02001629           JUNCTION     0.53     1.85     8.40     0  02:19        1.85
  YS02001633           JUNCTION     0.61     2.08     8.53     0  02:21        2.08
  YS02001641           JUNCTION     0.58     2.00     8.43     0  02:21        2.00
  YS02001644           JUNCTION     0.57     1.92     8.35     0  02:19        1.92
  YS02001647           JUNCTION     0.34     1.76     8.37     0  02:24        1.73
  YS02001649           JUNCTION     0.38     1.99     8.38     0  02:24        1.95
  YS02001652           JUNCTION     0.25     2.16     8.75     0  02:19        1.79
  YS02001655           JUNCTION     0.19     2.20     9.05     0  02:19        1.58
  YS02001658           JUNCTION     0.13     1.45     8.59     0  02:24        1.32
  YS02001661           JUNCTION     0.16     1.27     8.68     0  02:24        1.08
  YS02001664           JUNCTION     0.07     0.50     8.42     0  02:24        0.46
  YS02001745           JUNCTION     0.07     0.78     8.29     0  02:24        0.75
  YS02001748           JUNCTION     0.12     1.43     8.51     0  02:22        1.19
  YS02001751           JUNCTION     0.15     1.48     8.36     0  02:22        1.39
  YS02001754           JUNCTION     0.21     1.69     8.30     0  02:22        1.65
  YS02001757           JUNCTION     0.39     2.01     8.27     0  02:24        1.98
  YS02001759           JUNCTION     0.32     1.99     8.36     0  02:24        1.99
  YS02001762           JUNCTION     0.31     2.12     8.52     0  02:19        1.97
  YS02001765           JUNCTION     0.29     2.10     8.55     0  02:19        1.95
  YS02001767           JUNCTION     0.29     2.03     8.52     0  02:19        1.93
  YS02001770           JUNCTION     0.31     1.95     8.44     0  02:19        1.95
  YS02001774           JUNCTION     0.37     2.03     8.45     0  02:21        1.99
  YS02001779           JUNCTION     0.19     1.68     8.37     0  02:19        1.68
  YS02001783           JUNCTION     0.29     1.46     7.61     0  02:18        1.26
  YS02001784           JUNCTION     0.30     1.23     7.30     0  02:18        1.17
  YS02001786           JUNCTION     0.26     0.93     6.96     0  02:18        0.87
  YS02001788           JUNCTION     0.19     0.62     6.60     0  02:24        0.62
  YS02001790           JUNCTION     0.22     0.73     6.37     0  02:25        0.72
  YS02001791           JUNCTION     0.14     0.44     5.91     0  02:25        0.43
  YS02001793           JUNCTION     0.07     0.31     5.14     0  02:26        0.29
  YS02001882           JUNCTION     0.35     1.81     8.53     0  02:16        1.70
  YS02001884           JUNCTION     0.44     1.88     8.50     0  02:16        1.80
  YS02001887           JUNCTION     0.52     1.90     8.44     0  02:21        1.90
  YS02001890           JUNCTION     0.55     1.81     8.32     0  02:16        1.81
  YS02001895           JUNCTION     0.32     1.59     8.34     0  02:21        1.59
  YS02001898           JUNCTION     0.33     1.61     8.35     0  02:21        1.61
  YS02001901           JUNCTION     0.44     1.69     8.30     0  02:20        1.69
  YS02001904           JUNCTION     0.42     1.67     8.30     0  02:21        1.67
  YS02001907           JUNCTION     0.73     1.96     8.25     0  02:18        1.96
  YS02001910           JUNCTION     0.54     2.00     8.51     0  02:19        1.90
  YS02001915           JUNCTION     0.36     1.96     8.67     0  02:19        1.80
  YS02001918           JUNCTION     0.19     1.81     8.88     0  02:18        1.48
  YS02001920           JUNCTION     0.27     2.12     9.13     0  02:19        1.53
  YS02001923           JUNCTION     0.14     2.03     9.29     0  02:19        1.26
  YS02001926           JUNCTION     0.18     1.90     9.35     0  02:19        1.09
  YS02001929           JUNCTION     0.10     1.78     9.47     0  02:19        0.83
  YS02006553           JUNCTION     0.74     2.03     8.31     0  02:18        1.98
  YS02006556           JUNCTION     0.71     2.07     8.38     0  02:21        2.07
  YS02006558           JUNCTION     0.75     2.12     8.38     0  02:18        2.11
  YS02006561           JUNCTION     0.18     1.20     7.86     0  02:18        0.90
  YS02163301           JUNCTION     0.56     1.94     8.45     0  02:20        1.94
  YS02163601           JUNCTION     0.64     2.08     8.48     0  02:21        2.08
  YS02164001           JUNCTION     0.57     2.03     8.49     0  02:21        2.03
  CC-1                 OUTFALL      0.00     0.00     0.00     0  00:00        0.00
  CC-2                 OUTFALL      0.00     0.00     0.00     0  00:00        0.00
  JK-1                 OUTFALL      0.00     0.00     0.00     0  00:00        0.00
  JK-2                 OUTFALL      0.00     0.00     0.00     0  00:00        0.00
  WSC                  OUTFALL      0.16     0.30     0.97     0  02:40        0.30
  CC-storage           STORAGE      0.73     1.56     7.06     0  02:46        1.56
  JK-storage           STORAGE      1.60     4.23     5.03     0  02:35        4.19
  
  
  *******************
  Node Inflow Summary
  *******************
  
  -------------------------------------------------------------------------------------------------
                                  Maximum  Maximum                  Lateral       Total        Flow
                                  Lateral    Total  Time of Max      Inflow      Inflow     Balance
                                   Inflow   Inflow   Occurrence      Volume      Volume       Error
  Node                 Type           LPS      LPS  days hr:min    10^6 ltr    10^6 ltr     Percent
  -------------------------------------------------------------------------------------------------
  WS02003060           JUNCTION     16.53   551.55     0  02:38       0.476        3.94       0.058
  WS02003066           JUNCTION      0.00   534.48     0  02:38           0        3.46       0.039
  WS02003067           JUNCTION      0.00   534.40     0  02:38           0        3.47       0.119
  WS02003069           JUNCTION      0.32   551.22     0  02:39     0.00922        3.95       0.098
  WS02003072           JUNCTION      0.00   550.47     0  02:39           0        3.94       0.175
  WS02003073           JUNCTION      1.82   552.26     0  02:39      0.0524        3.99       0.141
  WS02004401           JUNCTION      0.00   538.18     0  02:29           0        3.57       0.284
  WS02004402           JUNCTION      0.00   538.57     0  02:30           0        3.56       0.289
  WS02004403           JUNCTION      0.00   538.74     0  02:31           0        3.55       0.283
  WS02004404           JUNCTION      0.16   557.93     0  02:29     0.00467        3.54       0.259
  WS02004405           JUNCTION      0.04   609.54     0  02:30      0.0011        3.53       0.272
  WS02004406           JUNCTION      0.00   542.33     0  02:31           0        3.52       0.589
  WS02004407           JUNCTION      0.00   538.20     0  02:31           0         3.5       0.030
  WS02004409           JUNCTION      0.00   537.62     0  02:31           0         3.5       0.072
  WS02004410           JUNCTION      0.00   536.36     0  02:32           0         3.5       0.122
  WS02004411           JUNCTION      0.00   535.59     0  02:32           0        3.49       0.157
  WS02004412           JUNCTION      0.00   534.89     0  02:37           0        3.49       0.211
  WS02004413           JUNCTION      0.00   534.83     0  02:37           0        3.48       0.382
  WS02006109           JUNCTION      1.23   553.41     0  02:36      0.0354        3.61       0.212
  WS02006110           JUNCTION      0.00   554.30     0  02:36           0        3.61       0.187
  WS02006111           JUNCTION      0.00   559.91     0  03:08           0         3.6       0.024
  WS02006112           JUNCTION      0.00   543.73     0  02:38           0         3.6       0.520
  WS02006113           JUNCTION      0.00   562.15     0  02:53           0         3.6       0.042
  WS02006115           JUNCTION      0.00   546.83     0  03:06           0        3.58       0.188
  WS02006116           JUNCTION      0.00   539.48     0  02:38           0        3.57       0.139
  WS02006228           JUNCTION      0.00   552.25     0  02:36           0        3.58       0.119
  WS02006229           JUNCTION      0.00   551.70     0  02:36           0        3.59       0.163
  WS02006230           JUNCTION     10.28   591.32     0  02:30       0.296        3.59       0.151
  WS02006231           JUNCTION      0.00   572.08     0  03:05           0         3.3      -0.019
  WS02006232           JUNCTION      0.00   571.27     0  03:05           0         3.3       0.181
  WS02006234           JUNCTION      0.00   566.44     0  03:05           0        3.29      -0.449
  WS02006235           JUNCTION      0.00   559.29     0  03:05           0        3.41       0.421
  WS02006238           JUNCTION      0.00   423.91     0  03:09           0        2.64      -0.154
  WS02006239           JUNCTION      0.00   423.42     0  03:09           0        2.55      -0.212
  WS02006240           JUNCTION      0.00   421.09     0  03:09           0        2.51      -0.028
  WS02006242           JUNCTION      0.00   421.19     0  03:09           0         2.5      -0.018
  WS02006243           JUNCTION      0.00   420.87     0  03:09           0        2.49      -0.223
  WS02006245           JUNCTION      0.00   419.98     0  03:09           0         2.5       0.641
  WS02006247           JUNCTION      0.00   419.18     0  03:09           0         2.5       0.013
  WS02006248           JUNCTION      0.00   418.73     0  03:09           0         2.5      -0.130
  WS02006249           JUNCTION      0.00   471.14     0  01:45           0        2.65       0.881
  WS02006251           JUNCTION      0.08   444.54     0  01:25     0.00222        2.65       0.030
  WS02006252           JUNCTION      0.00   400.00     0  00:00           0        2.63      -0.626
  WS02006256           JUNCTION      0.00   300.00     0  00:00           0        1.11      -3.109
  WSF200               JUNCTION      0.00   534.56     0  02:38           0        3.46       0.014
  YS02001580           JUNCTION      0.00    69.36     0  02:13           0     0.00417       3.806
  YS02001583           JUNCTION      0.00   123.92     0  02:13           0      0.0154      -4.694
  YS02001586           JUNCTION    687.14   687.15     0  02:26        1.52        1.53       0.063
  YS02001590           JUNCTION      0.00   319.22     0  02:21           0        1.26      -0.035
  YS02001593           JUNCTION      0.00   318.82     0  02:21           0        1.26       0.008
  YS02001596           JUNCTION      0.00   318.01     0  02:32           0        1.26      -0.012
  YS02001600           JUNCTION      0.00   318.07     0  02:34           0        1.26       0.019
  YS02001601           JUNCTION   1210.70  1528.50     0  02:25        2.12        3.37       0.021
  YS02001602           JUNCTION      0.00   493.59     0  02:12           0        2.22       0.021
  YS02001605           JUNCTION      0.00   494.47     0  02:12           0        2.13       0.036
  YS02001607           JUNCTION      0.00   495.68     0  02:12           0        2.13       0.092
  YS02001610           JUNCTION      0.00   652.04     0  02:26           0        2.27       0.096
  YS02001613           JUNCTION      0.00   499.92     0  02:12           0        1.89       0.082
  YS02001616           JUNCTION      0.00   498.19     0  02:12           0        1.89       0.015
  YS02001619           JUNCTION   1224.31  1224.31     0  02:26        2.43        4.18      -0.007
  YS02001622           JUNCTION      0.00   929.20     0  02:25           0        4.04      -0.005
  YS02001625           JUNCTION      0.00  1280.27     0  02:26           0        4.18       0.218
  YS02001629           JUNCTION      0.00   929.10     0  02:17           0        3.43       0.021
  YS02001633           JUNCTION    912.02  1355.44     0  02:17        1.54        4.82       0.073
  YS02001641           JUNCTION      0.00  1354.71     0  02:17           0        4.67       0.057
  YS02001644           JUNCTION    817.10  1739.32     0  02:17        1.34           6       0.053
  YS02001647           JUNCTION      0.00  1739.12     0  02:17           0        5.75       0.006
  YS02001649           JUNCTION      0.00  1968.01     0  02:18           0        6.97       0.002
  YS02001652           JUNCTION      0.00   830.20     0  02:25           0        1.22      -0.081
  YS02001655           JUNCTION      0.15   829.95     0  02:25     0.00443        1.22       0.010
  YS02001658           JUNCTION      0.00   829.39     0  02:25           0        1.21      -0.011
  YS02001661           JUNCTION      0.00   882.36     0  02:24           0        1.21      -0.002
  YS02001664           JUNCTION    807.96   807.96     0  02:25        1.21        1.21      -0.006
  YS02001745           JUNCTION    510.21   510.21     0  02:25       0.739       0.739       0.175
  YS02001748           JUNCTION      0.04   528.31     0  02:21      0.0013        0.74      -0.251
  YS02001751           JUNCTION      0.01   522.52     0  02:25    0.000317       0.744       0.099
  YS02001754           JUNCTION      0.26   522.28     0  02:24     0.00749       0.754      -0.125
  YS02001757           JUNCTION      0.00  3291.45     0  02:23           0        10.2       0.039
  YS02001759           JUNCTION    709.59  1349.78     0  02:24        1.02         2.5      -0.008
  YS02001762           JUNCTION      0.00   748.00     0  02:22           0        1.48       0.000
  YS02001765           JUNCTION      0.00   747.02     0  02:22           0        1.48       0.002
  YS02001767           JUNCTION      0.54   747.09     0  02:22      0.0154        1.48       0.016
  YS02001770           JUNCTION    997.86   997.86     0  02:25        1.56         1.6      -0.010
  YS02001774           JUNCTION      0.00   392.49     0  02:25           0       0.158       0.711
  YS02001779           JUNCTION      0.01   394.22     0  02:25    0.000144       0.115      -0.098
  YS02001783           JUNCTION      0.00  1164.13     0  02:25           0        3.88       0.006
  YS02001784           JUNCTION      1.06  1164.97     0  02:25      0.0305        3.91       0.013
  YS02001786           JUNCTION      0.06  1164.81     0  02:25     0.00162        3.91       0.017
  YS02001788           JUNCTION      0.07  1164.97     0  02:25     0.00204        3.91       0.008
  YS02001790           JUNCTION      0.15  1176.77     0  02:24     0.00446        3.91       0.014
  YS02001791           JUNCTION      0.00  1292.75     0  02:25           0        3.91      -0.015
  YS02001793           JUNCTION      0.00  1249.85     0  02:26           0        3.91       0.004
  YS02001882           JUNCTION      0.00    43.80     0  02:16           0      0.0123       4.322
  YS02001884           JUNCTION      0.00    50.78     0  02:15           0       0.048       5.421
  YS02001887           JUNCTION    761.82   764.48     0  02:25        1.07         1.1       0.401
  YS02001890           JUNCTION      0.00   763.49     0  02:25           0        1.06       0.477
  YS02001895           JUNCTION      0.00   516.87     0  02:27           0       0.999       0.144
  YS02001898           JUNCTION      0.00   517.87     0  02:27           0       0.998       0.018
  YS02001901           JUNCTION      0.00   517.30     0  02:27           0           1       0.321
  YS02001904           JUNCTION      0.00   517.50     0  02:28           0           1       0.266
  YS02001907           JUNCTION      0.00  1844.83     0  02:25           0        3.34       0.518
  YS02001910           JUNCTION      0.00  1329.02     0  02:25           0        2.35       0.302
  YS02001915           JUNCTION    880.63  1328.64     0  02:25        1.48        2.38       0.062
  YS02001918           JUNCTION      0.00   453.48     0  02:26           0       0.913       0.011
  YS02001920           JUNCTION      2.87   457.37     0  02:26      0.0827         0.9       0.103
  YS02001923           JUNCTION      0.04   450.06     0  02:26     0.00109       0.804      -0.041
  YS02001926           JUNCTION      0.05   452.32     0  02:26      0.0015       0.789       0.014
  YS02001929           JUNCTION    430.02   430.02     0  02:26       0.781       0.781      -0.046
  YS02006553           JUNCTION      0.00   804.12     0  02:38           0        2.36       0.499
  YS02006556           JUNCTION      0.00   803.81     0  02:38           0        2.37       0.325
  YS02006558           JUNCTION   1025.69  1164.67     0  02:23        1.56        3.91       0.088
  YS02006561           JUNCTION      0.00  1163.54     0  02:25           0        3.88      -0.002
  YS02163301           JUNCTION      0.00   928.94     0  02:17           0        3.43       0.043
  YS02163601           JUNCTION      0.11  1355.67     0  02:17     0.00317        4.67       0.106
  YS02164001           JUNCTION      0.00  1355.36     0  02:17           0        4.66       0.040
  CC-1                 OUTFALL       0.00   683.00     0  00:00           0        3.79       0.000
  CC-2                 OUTFALL       0.00   683.00     0  00:00           0        4.65       0.000
  JK-1                 OUTFALL       0.00  1000.00     0  00:00           0        1.73       0.000
  JK-2                 OUTFALL       0.00  1000.00     0  00:00           0         1.2       0.000
  WSC                  OUTFALL       0.00   552.17     0  02:40           0        3.98       0.000
  CC-storage           STORAGE       0.00  3292.04     0  02:23           0        12.4      -0.243
  JK-storage           STORAGE       0.00  1250.40     0  02:24           0        4.07      -0.382
  
  
  **********************
  Node Surcharge Summary
  **********************
  
  Surcharging occurs when water rises above the top of the highest conduit.
  ---------------------------------------------------------------------
                                               Max. Height   Min. Depth
                                   Hours       Above Crown    Below Rim
  Node                 Type      Surcharged         Meters       Meters
  ---------------------------------------------------------------------
  WS02004404           JUNCTION        0.01          0.020        2.760
  WS02006109           JUNCTION        1.22          0.264        1.556
  WS02006110           JUNCTION        0.43          0.183        1.667
  WS02006112           JUNCTION        0.54          0.081        1.599
  WS02006228           JUNCTION        1.22          0.277        1.923
  WS02006229           JUNCTION        1.22          0.319        2.131
  WS02006230           JUNCTION        0.43          0.190        1.380
  WS02006231           JUNCTION        0.53          0.504        1.026
  WS02006232           JUNCTION        1.25          0.613        0.867
  WS02006234           JUNCTION        0.80          0.805        0.435
  WS02006235           JUNCTION        1.20          0.772        0.518
  WS02006238           JUNCTION        1.22          0.807        0.623
  WS02006239           JUNCTION        1.20          0.757        0.533
  WS02006240           JUNCTION        1.21          0.760        0.630
  WS02006242           JUNCTION        1.23          0.781        0.039
  WS02006243           JUNCTION        1.16          0.642        0.128
  WS02006245           JUNCTION        1.13          0.559        0.291
  WS02006247           JUNCTION        1.13          0.524        0.236
  WS02006248           JUNCTION        1.11          0.380        0.000
  WS02006249           JUNCTION        1.11          0.390        0.000
  WS02006251           JUNCTION        0.56          0.422        0.758
  WS02006252           JUNCTION        1.37          1.100        0.000
  WS02006256           JUNCTION        6.75          2.050        0.000
  YS02001580           JUNCTION        0.55          0.450        0.000
  YS02001583           JUNCTION        0.55          0.333        0.167
  YS02001586           JUNCTION        0.67          0.510        0.000
  YS02001590           JUNCTION        0.74          0.750        0.000
  YS02001593           JUNCTION        0.74          0.714        0.126
  YS02001596           JUNCTION        0.87          0.960        0.110
  YS02001600           JUNCTION        1.02          1.190        0.000
  YS02001601           JUNCTION        1.37          1.440        0.000
  YS02001602           JUNCTION        1.25          1.270        0.000
  YS02001605           JUNCTION        1.20          1.176        0.004
  YS02001607           JUNCTION        0.71          0.680        0.000
  YS02001610           JUNCTION        0.74          0.680        0.000
  YS02001613           JUNCTION        0.70          0.661        0.039
  YS02001616           JUNCTION        0.66          0.610        0.000
  YS02001619           JUNCTION        0.65          0.610        0.000
  YS02001622           JUNCTION        0.65          0.589        0.031
  YS02001625           JUNCTION        0.83          0.780        0.000
  YS02001629           JUNCTION        0.59          0.470        0.000
  YS02001633           JUNCTION        0.85          1.060        0.000
  YS02001641           JUNCTION        0.77          0.997        0.103
  YS02001644           JUNCTION        0.74          0.920        0.000
  YS02001647           JUNCTION        0.51          0.764        0.136
  YS02001649           JUNCTION        0.60          0.993        0.057
  YS02001652           JUNCTION        0.43          1.125        0.005
  YS02001655           JUNCTION        0.30          1.200        0.000
  YS02001658           JUNCTION        0.17          0.452        0.848
  YS02001661           JUNCTION        0.01          0.203        1.187
  YS02001748           JUNCTION        0.11          0.353        0.837
  YS02001751           JUNCTION        0.22          0.480        0.720
  YS02001754           JUNCTION        0.34          0.637        0.513
  YS02001757           JUNCTION        0.66          1.012        0.198
  YS02001759           JUNCTION        0.56          0.995        0.215
  YS02001762           JUNCTION        0.54          1.125        0.025
  YS02001765           JUNCTION        0.49          1.100        0.000
  YS02001767           JUNCTION        0.46          1.030        0.000
  YS02001770           JUNCTION        0.45          0.920        0.000
  YS02001774           JUNCTION        0.52          1.028        0.022
  YS02001779           JUNCTION        0.34          0.680        0.000
  YS02001783           JUNCTION        0.49          0.664        0.936
  YS02001784           JUNCTION        0.46          0.435        1.055
  YS02001786           JUNCTION        0.36          0.129        1.301
  YS02001882           JUNCTION        0.44          0.811        0.019
  YS02001884           JUNCTION        0.44          0.820        0.050
  YS02001887           JUNCTION        0.48          0.850        0.100
  YS02001890           JUNCTION        0.49          0.760        0.000
  YS02001895           JUNCTION        0.42          0.590        0.160
  YS02001898           JUNCTION        0.41          0.585        0.155
  YS02001901           JUNCTION        0.46          0.686        0.184
  YS02001904           JUNCTION        0.46          0.667        0.183
  YS02001907           JUNCTION        0.73          0.950        0.000
  YS02001910           JUNCTION        0.52          1.003        0.097
  YS02001915           JUNCTION        0.43          0.957        0.043
  YS02001918           JUNCTION        0.35          0.810        0.000
  YS02001920           JUNCTION        0.36          1.120        0.020
  YS02001923           JUNCTION        0.05          0.820        0.000
  YS02001926           JUNCTION        0.11          0.900        0.000
  YS02001929           JUNCTION        0.01          0.780        0.000
  YS02006553           JUNCTION        0.75          1.025        0.165
  YS02006556           JUNCTION        0.62          1.034        0.316
  YS02006558           JUNCTION        0.60          1.015        0.385
  YS02006561           JUNCTION        0.31          0.403        0.747
  YS02163301           JUNCTION        0.83          0.937        0.093
  YS02163601           JUNCTION        0.88          1.080        0.000
  YS02164001           JUNCTION        0.78          1.029        0.071
  
  
  *********************
  Node Flooding Summary
  *********************
  
  Flooding refers to all water that overflows a node, whether it ponds or not.
  --------------------------------------------------------------------------
                                                             Total   Maximum
                                 Maximum   Time of Max       Flood    Ponded
                        Hours       Rate    Occurrence      Volume     Depth
  Node                 Flooded       LPS   days hr:min    10^6 ltr    Meters
  --------------------------------------------------------------------------
  WS02006248              0.01     18.08      0  02:35       0.000     0.000
  WS02006249              0.54     98.89      0  02:21       0.130     0.000
  WS02006252              0.01    245.63      0  00:00       0.000     0.000
  WS02006256              1.02    293.19      0  00:00       0.329     0.000
  YS02001580              0.01     45.45      0  02:13       0.000     0.000
  YS02001586              0.42    369.39      0  02:26       0.261     0.000
  YS02001590              0.01     10.02      0  02:13       0.000     0.000
  YS02001600              0.01      3.32      0  02:13       0.000     0.000
  YS02001601              0.60   1130.57      0  02:25       1.148     0.000
  YS02001602              0.46     61.92      0  02:24       0.094     0.000
  YS02001607              0.01      0.55      0  02:21       0.000     0.000
  YS02001610              0.40    651.33      0  02:26       0.516     0.000
  YS02001616              0.01      0.90      0  02:21       0.000     0.000
  YS02001619              0.01      1.75      0  02:21       0.000     0.000
  YS02001625              0.37   1279.88      0  02:26       0.887     0.000
  YS02001629              0.09     88.21      0  02:22       0.017     0.000
  YS02001633              0.01      0.71      0  02:21       0.000     0.000
  YS02001644              0.15    782.14      0  02:25       0.238     0.000
  YS02001655              0.01    125.49      0  02:19       0.000     0.000
  YS02001765              0.01     40.45      0  02:19       0.000     0.000
  YS02001767              0.01      6.96      0  02:19       0.000     0.000
  YS02001770              0.01     76.97      0  02:19       0.000     0.000
  YS02001779              0.13    393.97      0  02:25       0.098     0.000
  YS02001890              0.14    248.32      0  02:25       0.059     0.000
  YS02001907              0.30   1696.76      0  02:25       0.976     0.000
  YS02001918              0.01     96.67      0  02:19       0.001     0.000
  YS02001923              0.01    161.97      0  02:19       0.000     0.000
  YS02001926              0.01    255.09      0  02:19       0.000     0.000
  YS02001929              0.01    279.77      0  02:19       0.001     0.000
  YS02163601              0.01      0.57      0  02:21       0.000     0.000
  
  
  **********************
  Storage Volume Summary
  **********************
  
  ------------------------------------------------------------------------------------------------
                         Average    Avg   Evap  Exfil     Maximum    Max    Time of Max    Maximum
                          Volume   Pcnt   Pcnt   Pcnt      Volume   Pcnt     Occurrence    Outflow
  Storage Unit           1000 m³   Full   Loss   Loss     1000 m³   Full    days hr:min        LPS
  ------------------------------------------------------------------------------------------------
  CC-storage               2.043   31.9    0.0    0.0       4.358   68.0       0  02:46    1783.53
  JK-storage               0.081   27.7    0.0    0.0       0.212   72.9       0  02:35    2300.00
  
  
  ***********************
  Outfall Loading Summary
  ***********************
  
  -----------------------------------------------------------
                         Flow       Avg       Max       Total
                         Freq      Flow      Flow      Volume
  Outfall Node           Pcnt       LPS       LPS    10^6 ltr
  -----------------------------------------------------------
  CC-1                  29.34    683.00    683.00       3.791
  CC-2                  44.24    683.00    683.00       4.655
  JK-1                   8.78   1000.00   1000.00       1.729
  JK-2                   9.68   1000.00   1000.00       1.199
  WSC                   99.95    205.78    552.17       3.981
  -----------------------------------------------------------
  System                38.40   3571.78   3918.17      15.354
  
  
  ********************
  Link Flow Summary
  ********************
  
  -----------------------------------------------------------------------------
                                 Maximum  Time of Max   Maximum    Max/    Max/
                                  |Flow|   Occurrence   |Veloc|    Full    Full
  Link                 Type          LPS  days hr:min     m/sec    Flow   Depth
  -----------------------------------------------------------------------------
  1                    CONDUIT    552.17     0  02:40      2.82    0.19    0.30
  WS02003060WS02003069 CONDUIT    550.90     0  02:39      1.64    0.22    0.34
  WS02003066WSF200     CONDUIT    534.56     0  02:38      2.85    0.09    0.22
  WS02003067WS02003066 CONDUIT    534.48     0  02:38      1.20    0.17    0.42
  WS02003069WS02003072 CONDUIT    550.47     0  02:39      1.37    0.27    0.39
  WS02003072WS02003073 CONDUIT    550.44     0  02:39      1.43    1.19    0.37
  WS02004401WS02004402 CONDUIT    538.57     0  02:30      1.07    0.65    0.89
  WS02004402WS02004403 CONDUIT    538.74     0  02:31      1.09    0.77    0.91
  WS02004403WS02004404 CONDUIT    557.77     0  02:29      1.06    0.40    0.96
  WS02004404WS02004405 CONDUIT    609.50     0  02:30      1.24    5.97    0.98
  WS02004405WS02004406 CONDUIT    542.33     0  02:31      1.20    1.07    0.96
  WS02004406WS02004407 CONDUIT    538.20     0  02:31      1.04    0.24    0.63
  WS02004407WS02004409 CONDUIT    537.62     0  02:31      1.46    0.19    0.48
  WS02004409WS02004410 CONDUIT    536.36     0  02:32      0.96    0.69    0.67
  WS02004410WS02004411 CONDUIT    535.59     0  02:32      0.94    0.73    0.68
  WS02004411WS02004412 CONDUIT    534.89     0  02:37      0.92    0.76    0.69
  WS02004412WS02004413 CONDUIT    534.83     0  02:37      0.82    0.36    0.78
  WS02004413WS02003067 CONDUIT    534.40     0  02:38      1.11    0.23    0.59
  WS02006109WS02006110 CONDUIT    554.30     0  02:36      1.10    1.07    1.00
  WS02006110WS02006113 CONDUIT    562.15     0  02:53      1.36    0.51    0.79
  WS02006111WS02006112 CONDUIT    543.73     0  02:38      1.85    0.26    0.67
  WS02006112WS02006115 CONDUIT    546.83     0  03:06      0.79    0.32    0.88
  WS02006113WS02006111 CONDUIT    559.91     0  03:08      2.46    0.67    0.46
  WS02006115WS02006116 CONDUIT    539.48     0  02:38      1.11    0.69    0.78
  WS02006116WS02004401 CONDUIT    538.18     0  02:29      1.07    0.74    0.86
  WS02006228WS02006109 CONDUIT    552.18     0  02:36      1.10    2.41    1.00
  WS02006229WS02006228 CONDUIT    552.25     0  02:36      1.11    1.83    1.00
  WS02006230WS02006229 CONDUIT    551.70     0  02:36      1.43   12.28    1.00
  WS02006231WS02006230 CONDUIT    581.04     0  02:30      1.57    8.81    1.00
  WS02006232WS02006231 CONDUIT    572.08     0  03:05      1.49    1.20    1.00
  WS02006234WS02006232 CONDUIT    571.27     0  03:05      1.48    1.16    1.00
  WS02006235WS02006234 CONDUIT    566.44     0  03:05      1.47    5.98    1.00
  WS02006238WS02006235 CONDUIT    425.84     0  03:09      1.45    0.95    1.00
  WS02006239WS02006238 CONDUIT    423.91     0  03:09      1.10    1.36    1.00
  WS02006240WS02006239 CONDUIT    423.42     0  03:09      1.29    1.33    1.00
  WS02006242WS02006240 CONDUIT    421.09     0  03:09      1.13    1.67    1.00
  WS02006243WS02006242 CONDUIT    421.19     0  03:09      1.40    0.90    1.00
  WS02006245WS02006243 CONDUIT    420.87     0  03:09      1.45    1.24    1.00
  WS02006247WS02006245 CONDUIT    419.98     0  03:09      1.43    3.33    1.00
  WS02006248WS02006247 CONDUIT    419.18     0  03:09      1.44    0.91    1.00
  WS02006249WS02006248 CONDUIT    418.73     0  03:09      1.37    2.29    1.00
  WS02006251WS02006249 CONDUIT    471.14     0  01:45      1.99    1.36    1.00
  WS02006252WS02006251 CONDUIT    444.46     0  01:25     22.12    1.63    1.00
  WS02006256WS02006235 CONDUIT    288.91     0  00:00      4.23    3.06    1.00
  WSF200WS02003060     CONDUIT    535.02     0  02:38      2.06    0.12    0.28
  YS02001580YS02001583 CONDUIT     69.36     0  02:13      0.52    0.27    1.00
  YS02001583YS02001586 CONDUIT    123.92     0  02:13      0.54    0.19    1.00
  YS02001586YS02001590 CONDUIT    319.22     0  02:21      1.25    0.56    1.00
  YS02001590YS02001593 CONDUIT    318.82     0  02:21      1.13    2.00    1.00
  YS02001593YS02001596 CONDUIT    318.01     0  02:32      1.75    0.50    1.00
  YS02001596YS02001600 CONDUIT    318.07     0  02:34      1.26    0.62    1.00
  YS02001600YS02001601 CONDUIT    318.26     0  02:21      1.13    0.55    1.00
  YS02001601YS02001602 CONDUIT    493.59     0  02:12      1.75    1.78    1.00
  YS02001602YS02001605 CONDUIT    494.47     0  02:12      1.75   10.46    1.00
  YS02001605YS02001607 CONDUIT    495.68     0  02:12      1.75    2.72    1.00
  YS02001607YS02001610 CONDUIT    497.58     0  02:12      0.63    0.47    1.00
  YS02001610YS02001613 CONDUIT    499.92     0  02:12      0.64    0.58    1.00
  YS02001613YS02001616 CONDUIT    498.19     0  02:12      0.63    0.43    1.00
  YS02001616YS02001619 CONDUIT    494.80     0  02:12      0.66    0.86    1.00
  YS02001619YS02001622 CONDUIT    929.20     0  02:25      1.18    1.37    1.00
  YS02001622YS02001625 CONDUIT    930.76     0  02:25      1.19    0.50    1.00
  YS02001625YS02001629 CONDUIT    929.10     0  02:17      1.18    0.44    1.00
  YS02001629YS02163301 CONDUIT    928.94     0  02:17      1.18    1.14    1.00
  YS02001633YS02163601 CONDUIT   1355.56     0  02:17      1.73    1.42    1.00
  YS02001641YS02001644 CONDUIT   1355.06     0  02:17      1.73    4.38    1.00
  YS02001644YS02001647 CONDUIT   1739.12     0  02:17      2.22    1.02    1.00
  YS02001647YS02001649 CONDUIT   1760.61     0  02:17      2.31    0.93    1.00
  YS02001649YS02001757 CONDUIT   1965.03     0  02:18      2.52    1.19    1.00
  YS02001652YS02001649 CONDUIT    830.20     0  02:25      1.06    0.41    1.00
  YS02001655YS02001652 CONDUIT    830.20     0  02:25      1.24    0.40    1.00
  YS02001658YS02001655 CONDUIT    829.80     0  02:25      1.83    0.35    1.00
  YS02001661YS02001658 CONDUIT    829.39     0  02:25      2.26    0.33    1.00
  YS02001664YS02001661 CONDUIT    882.36     0  02:24      2.24    0.28    0.75
  YS02001745YS02001748 CONDUIT    528.26     0  02:21      2.11    0.20    0.89
  YS02001748YS02001751 CONDUIT    522.51     0  02:25      1.64    0.26    1.00
  YS02001751YS02001754 CONDUIT    522.02     0  02:24      1.38    0.25    1.00
  YS02001754YS02001757 CONDUIT    522.31     0  02:24      0.67    0.21    1.00
  YS02001757CaochengTiaoxuchi CONDUIT   3292.04     0  02:23      4.19    1.42    1.00
  YS02001759YS02001757 CONDUIT   1350.69     0  02:24      1.72    0.96    1.00
  YS02001762YS02001759 CONDUIT    748.13     0  02:22      0.95    0.86    1.00
  YS02001765YS02001762 CONDUIT    748.00     0  02:22      0.95    0.70    1.00
  YS02001767YS02001765 CONDUIT    747.02     0  02:22      0.95    0.94    1.00
  YS02001770YS02001767 CONDUIT    746.56     0  02:22      0.95    2.96    1.00
  YS02001774YS02001770 CONDUIT    392.49     0  02:25      0.50    0.25    1.00
  YS02001779YS02001774 CONDUIT    394.22     0  02:25      0.50    0.20    1.00
  YS02001783YS02001784 CONDUIT   1163.91     0  02:25      2.32    1.60    1.00
  YS02001784YS02001785 CONDUIT   1164.75     0  02:25      2.32    2.71    1.00
  YS02001786YS02001788 CONDUIT   1164.90     0  02:25      2.48    2.24    0.89
  YS02001788YS02001790 CONDUIT   1176.61     0  02:24      2.73    0.87    0.84
  YS02001790YS02001791 CONDUIT   1292.75     0  02:25      3.44    1.41    0.70
  YS02001791YS02001793 CONDUIT   1249.85     0  02:26      6.62    0.54    0.45
  YS02001793JiankangQianchi CONDUIT   1250.40     0  02:24      2.44    0.10    0.65
  YS02001882YS02001884 CONDUIT     43.80     0  02:16      0.12    0.05    1.00
  YS02001884YS02001887 CONDUIT     50.78     0  02:15      0.08    0.07    1.00
  YS02001887YS02001890 CONDUIT    763.49     0  02:25      0.97    1.31    1.00
  YS02001890YS02001895 CONDUIT    516.87     0  02:27      0.66    0.24    1.00
  YS02001895YS02001898 CONDUIT    517.87     0  02:27      0.66    0.90    1.00
  YS02001898YS02001901 CONDUIT    517.30     0  02:27      0.66    0.33    1.00
  YS02001901YS02001904 CONDUIT    517.50     0  02:28      0.66    0.80    1.00
  YS02001904YS02001907 CONDUIT    518.13     0  02:26      0.66    0.18    1.00
  YS02001907YS02006553 CONDUIT    804.12     0  02:38      0.89    0.95    1.00
  YS02001910YS02001907 CONDUIT   1329.26     0  02:25      1.69    0.75    1.00
  YS02001915YS02001910 CONDUIT   1329.02     0  02:25      1.69    0.66    1.00
  YS02001918YS02001915 CONDUIT    450.92     0  02:25      0.57    0.25    1.00
  YS02001920YS02001918 CONDUIT    453.48     0  02:26      0.67    0.44    1.00
  YS02001923YS02001920 CONDUIT    454.50     0  02:26      0.69    0.20    1.00
  YS02001926YS02001923 CONDUIT    450.02     0  02:26      0.95    0.64    1.00
  YS02001929YS02001926 CONDUIT    452.27     0  02:26      1.09    0.21    1.00
  YS02006553YS02006556 CONDUIT    803.81     0  02:38      1.02    0.69    1.00
  YS02006556YS02006558 CONDUIT    805.22     0  02:38      1.03    0.64    1.00
  YS02006558YS02006561 CONDUIT   1163.54     0  02:25      4.12    2.57    1.00
  YS02006561YS02001783 CONDUIT   1164.13     0  02:25      2.32    0.60    1.00
  YS02163301YS02001633 CONDUIT    928.84     0  02:17      1.18    0.87    1.00
  YS02163601YS02164001 CONDUIT   1355.36     0  02:17      1.73    1.20    1.00
  YS02164001YS02001641 CONDUIT   1354.71     0  02:17      1.72    1.85    1.00
  CC-R1                PUMP       683.00     0  00:00              1.00
  CC-R2                PUMP       683.00     0  00:00              1.00
  CC-S1                PUMP       200.00     0  00:00              1.00
  CC-S2                PUMP       200.00     0  00:00              1.00
  JK-R1                PUMP      1000.00     0  00:00              1.00
  JK-R2                PUMP      1000.00     0  00:00              1.00
  JK-S                 PUMP       300.00     0  00:00              1.00
  
  
  ***************************
  Flow Classification Summary
  ***************************
  
  -------------------------------------------------------------------------------------
                      Adjusted    ---------- Fraction of Time in Flow Class ---------- 
                       /Actual         Up    Down  Sub   Sup   Up    Down  Norm  Inlet 
  Conduit               Length    Dry  Dry   Dry   Crit  Crit  Crit  Crit  Ltd   Ctrl  
  -------------------------------------------------------------------------------------
  1                       1.00   0.00  0.00  0.00  0.00  1.00  0.00  0.00  0.37  0.00
  WS02003060WS02003069    1.00   0.00  0.00  0.00  0.98  0.02  0.00  0.00  0.77  0.00
  WS02003066WSF200        1.00   0.07  0.00  0.00  0.00  0.93  0.00  0.00  0.86  0.00
  WS02003067WS02003066    1.00   0.06  0.01  0.00  0.93  0.00  0.00  0.00  0.00  0.00
  WS02003069WS02003072    1.00   0.00  0.00  0.00  0.99  0.01  0.00  0.00  0.83  0.00
  WS02003072WS02003073    1.00   0.00  0.00  0.00  0.00  0.00  0.00  1.00  0.00  0.00
  WS02004401WS02004402    1.00   0.02  0.00  0.00  0.98  0.00  0.00  0.00  0.00  0.00
  WS02004402WS02004403    1.00   0.02  0.00  0.00  0.97  0.00  0.00  0.00  0.00  0.00
  WS02004403WS02004404    1.00   0.00  0.03  0.00  0.97  0.00  0.00  0.00  0.00  0.00
  WS02004404WS02004405    1.00   0.00  0.00  0.00  1.00  0.00  0.00  0.00  0.01  0.00
  WS02004405WS02004406    1.00   0.00  0.00  0.00  1.00  0.00  0.00  0.00  0.00  0.00
  WS02004406WS02004407    1.00   0.00  0.04  0.00  0.96  0.00  0.00  0.00  0.00  0.00
  WS02004407WS02004409    1.00   0.04  0.00  0.00  0.95  0.01  0.00  0.00  0.96  0.00
  WS02004409WS02004410    1.00   0.04  0.00  0.00  0.96  0.00  0.00  0.00  0.00  0.00
  WS02004410WS02004411    1.00   0.04  0.00  0.00  0.96  0.00  0.00  0.00  0.00  0.00
  WS02004411WS02004412    1.00   0.04  0.00  0.00  0.96  0.00  0.00  0.00  0.00  0.00
  WS02004412WS02004413    1.00   0.04  0.00  0.00  0.95  0.00  0.00  0.00  0.00  0.00
  WS02004413WS02003067    1.00   0.04  0.01  0.00  0.00  0.00  0.94  0.00  0.00  0.00
  WS02006109WS02006110    1.00   0.00  0.01  0.00  0.98  0.00  0.01  0.00  0.00  0.00
  WS02006110WS02006113    1.00   0.01  0.01  0.00  0.98  0.00  0.00  0.00  0.00  0.00
  WS02006111WS02006112    1.00   0.02  0.00  0.00  0.98  0.00  0.00  0.00  0.98  0.00
  WS02006112WS02006115    1.00   0.02  0.00  0.00  0.97  0.00  0.00  0.00  0.00  0.00
  WS02006113WS02006111    1.00   0.02  0.00  0.00  0.00  0.98  0.00  0.00  0.10  0.00
  WS02006115WS02006116    1.00   0.02  0.00  0.00  0.97  0.00  0.00  0.01  0.00  0.00
  WS02006116WS02004401    1.00   0.02  0.00  0.00  0.98  0.00  0.00  0.00  0.00  0.00
  WS02006228WS02006109    1.00   0.00  0.00  0.00  1.00  0.00  0.00  0.00  0.00  0.00
  WS02006229WS02006228    1.00   0.00  0.00  0.00  0.99  0.00  0.00  0.01  0.00  0.00
  WS02006230WS02006229    1.00   0.00  0.00  0.00  0.99  0.00  0.00  0.01  0.03  0.00
  WS02006231WS02006230    1.00   0.00  0.00  0.00  0.17  0.00  0.83  0.00  0.00  0.00
  WS02006232WS02006231    1.00   0.00  0.00  0.00  0.99  0.00  0.01  0.00  0.00  0.00
  WS02006234WS02006232    1.00   0.00  0.00  0.00  1.00  0.00  0.00  0.00  0.05  0.00
  WS02006235WS02006234    1.00   0.00  0.00  0.00  0.88  0.00  0.12  0.00  0.00  0.00
  WS02006238WS02006235    1.00   0.00  0.00  0.00  1.00  0.00  0.00  0.00  0.01  0.00
  WS02006239WS02006238    1.00   0.00  0.00  0.00  1.00  0.00  0.00  0.00  0.15  0.00
  WS02006240WS02006239    1.00   0.00  0.00  0.00  0.65  0.00  0.00  0.35  0.05  0.00
  WS02006242WS02006240    1.00   0.00  0.00  0.00  0.99  0.00  0.01  0.00  0.00  0.00
  WS02006243WS02006242    1.00   0.00  0.00  0.00  0.99  0.00  0.00  0.01  0.64  0.00
  WS02006245WS02006243    1.00   0.00  0.00  0.00  0.80  0.00  0.00  0.20  0.02  0.00
  WS02006247WS02006245    1.00   0.00  0.00  0.00  0.95  0.00  0.00  0.04  0.00  0.00
  WS02006248WS02006247    1.00   0.00  0.00  0.00  0.98  0.00  0.00  0.02  0.58  0.00
  WS02006249WS02006248    1.00   0.00  0.00  0.00  0.39  0.00  0.61  0.00  0.00  0.00
  WS02006251WS02006249    1.00   0.00  0.00  0.00  0.99  0.01  0.00  0.00  0.62  0.00
  WS02006252WS02006251    1.00   0.00  0.54  0.00  0.07  0.00  0.39  0.00  0.00  0.00
  WS02006256WS02006235    1.00   0.00  0.00  0.00  0.98  0.02  0.00  0.00  0.00  0.00
  WSF200WS02003060        1.00   0.00  0.07  0.00  0.49  0.44  0.00  0.00  0.71  0.00
  YS02001580YS02001583    1.00   0.27  0.54  0.00  0.18  0.00  0.00  0.00  0.64  0.00
  YS02001583YS02001586    1.00   0.41  0.35  0.00  0.24  0.00  0.00  0.00  0.64  0.00
  YS02001586YS02001590    1.00   0.13  0.00  0.00  0.44  0.04  0.00  0.39  0.39  0.00
  YS02001590YS02001593    1.00   0.13  0.01  0.00  0.11  0.00  0.76  0.00  0.00  0.00
  YS02001593YS02001596    1.00   0.13  0.00  0.00  0.13  0.01  0.00  0.73  0.02  0.00
  YS02001596YS02001600    1.00   0.14  0.00  0.00  0.20  0.02  0.00  0.65  0.05  0.00
  YS02001600YS02001601    1.00   0.13  0.01  0.00  0.86  0.00  0.00  0.00  0.60  0.00
  YS02001601YS02001602    1.00   0.13  0.01  0.00  0.87  0.00  0.00  0.00  0.00  0.00
  YS02001602YS02001605    1.00   0.13  0.00  0.00  0.86  0.00  0.00  0.00  0.00  0.00
  YS02001605YS02001607    1.00   0.14  0.00  0.00  0.86  0.00  0.00  0.00  0.00  0.00
  YS02001607YS02001610    1.00   0.13  0.01  0.00  0.86  0.00  0.00  0.00  0.01  0.00
  YS02001610YS02001613    1.00   0.13  0.00  0.00  0.87  0.00  0.00  0.00  0.00  0.00
  YS02001613YS02001616    1.00   0.13  0.00  0.00  0.87  0.00  0.00  0.00  0.00  0.00
  YS02001616YS02001619    1.00   0.13  0.00  0.00  0.87  0.00  0.00  0.00  0.00  0.00
  YS02001619YS02001622    1.00   0.13  0.00  0.00  0.87  0.00  0.00  0.00  0.27  0.00
  YS02001622YS02001625    1.00   0.13  0.00  0.00  0.87  0.00  0.00  0.00  0.04  0.00
  YS02001625YS02001629    1.00   0.13  0.05  0.00  0.15  0.00  0.67  0.00  0.00  0.00
  YS02001629YS02163301    1.00   0.15  0.01  0.00  0.84  0.00  0.00  0.00  0.00  0.00
  YS02001633YS02163601    1.00   0.00  0.01  0.00  0.99  0.00  0.00  0.00  0.15  0.00
  YS02001641YS02001644    1.00   0.00  0.01  0.00  0.99  0.00  0.00  0.00  0.00  0.00
  YS02001644YS02001647    1.00   0.00  0.17  0.00  0.83  0.00  0.00  0.00  0.00  0.00
  YS02001647YS02001649    1.00   0.00  0.17  0.00  0.50  0.32  0.00  0.00  0.56  0.00
  YS02001649YS02001757    1.00   0.00  0.00  0.00  0.65  0.35  0.00  0.00  0.46  0.00
  YS02001652YS02001649    1.00   0.00  0.00  0.00  0.96  0.04  0.00  0.00  0.75  0.00
  YS02001655YS02001652    1.00   0.00  0.00  0.00  0.17  0.01  0.00  0.82  0.05  0.00
  YS02001658YS02001655    1.00   0.00  0.14  0.00  0.64  0.22  0.00  0.00  0.71  0.00
  YS02001661YS02001658    1.00   0.14  0.00  0.00  0.47  0.38  0.00  0.00  0.72  0.00
  YS02001664YS02001661    1.00   0.13  0.00  0.00  0.76  0.11  0.00  0.00  0.86  0.00
  YS02001745YS02001748    1.00   0.00  0.00  0.00  0.07  0.01  0.00  0.92  0.04  0.00
  YS02001748YS02001751    1.00   0.00  0.00  0.00  0.80  0.20  0.00  0.00  0.75  0.00
  YS02001751YS02001754    1.00   0.00  0.00  0.00  0.14  0.01  0.00  0.85  0.03  0.00
  YS02001754YS02001757    1.00   0.00  0.00  0.00  1.00  0.00  0.00  0.00  0.84  0.00
  YS02001757CaochengTiaoxuchi    1.00   0.00  0.00  0.00  0.94  0.06  0.00  0.00  0.80  0.00
  YS02001759YS02001757    1.00   0.00  0.00  0.00  1.00  0.00  0.00  0.00  0.60  0.00
  YS02001762YS02001759    1.00   0.00  0.00  0.00  1.00  0.00  0.00  0.00  0.05  0.00
  YS02001765YS02001762    1.00   0.00  0.00  0.00  1.00  0.00  0.00  0.00  0.73  0.00
  YS02001767YS02001765    1.00   0.00  0.00  0.00  1.00  0.00  0.00  0.00  0.00  0.00
  YS02001770YS02001767    1.00   0.00  0.00  0.00  1.00  0.00  0.00  0.00  0.00  0.00
  YS02001774YS02001770    1.00   0.00  0.13  0.00  0.70  0.00  0.16  0.00  0.03  0.00
  YS02001779YS02001774    1.00   0.00  0.00  0.00  1.00  0.00  0.00  0.00  0.77  0.00
  YS02001783YS02001784    1.00   0.00  0.18  0.00  0.82  0.00  0.00  0.00  0.55  0.00
  YS02001784YS02001785    1.00   0.00  0.00  0.00  1.00  0.00  0.00  0.00  0.17  0.00
  YS02001786YS02001788    1.00   0.00  0.00  0.00  0.79  0.21  0.00  0.00  0.00  0.00
  YS02001788YS02001790    1.00   0.00  0.00  0.00  0.21  0.79  0.00  0.00  0.80  0.00
  YS02001790YS02001791    1.00   0.00  0.00  0.00  0.01  0.99  0.00  0.00  0.16  0.00
  YS02001791YS02001793    1.00   0.00  0.00  0.00  0.00  1.00  0.00  0.00  0.01  0.00
  YS02001793JiankangQianchi    1.00   0.00  0.00  0.00  0.99  0.01  0.00  0.00  0.95  0.00
  YS02001882YS02001884    1.00   0.15  0.01  0.00  0.84  0.00  0.00  0.00  0.00  0.00
  YS02001884YS02001887    1.00   0.06  0.05  0.00  0.89  0.00  0.00  0.00  0.00  0.00
  YS02001887YS02001890    1.00   0.00  0.00  0.00  0.97  0.00  0.03  0.00  0.00  0.00
  YS02001890YS02001895    1.00   0.00  0.16  0.00  0.83  0.00  0.00  0.00  0.00  0.00
  YS02001895YS02001898    1.00   0.17  0.00  0.00  0.81  0.00  0.02  0.00  0.00  0.00
  YS02001898YS02001901    1.00   0.17  0.00  0.00  0.83  0.00  0.00  0.00  0.01  0.00
  YS02001901YS02001904    1.00   0.17  0.00  0.00  0.83  0.00  0.00  0.00  0.00  0.00
  YS02001904YS02001907    1.00   0.00  0.16  0.00  0.83  0.00  0.00  0.00  0.00  0.00
  YS02001907YS02006553    1.00   0.00  0.02  0.00  0.98  0.00  0.00  0.00  0.00  0.00
  YS02001910YS02001907    1.00   0.00  0.00  0.00  0.97  0.00  0.00  0.03  0.12  0.00
  YS02001915YS02001910    1.00   0.00  0.00  0.00  0.97  0.03  0.00  0.00  0.16  0.00
  YS02001918YS02001915    1.00   0.00  0.01  0.00  0.98  0.02  0.00  0.00  0.75  0.00
  YS02001920YS02001918    1.00   0.00  0.01  0.00  0.99  0.00  0.00  0.00  0.00  0.00
  YS02001923YS02001920    1.00   0.00  0.00  0.00  1.00  0.00  0.00  0.00  0.93  0.00
  YS02001926YS02001923    1.00   0.00  0.07  0.00  0.05  0.00  0.87  0.00  0.00  0.00
  YS02001929YS02001926    1.00   0.00  0.13  0.00  0.87  0.00  0.00  0.00  0.83  0.00
  YS02006553YS02006556    1.00   0.01  0.00  0.00  0.99  0.00  0.00  0.00  0.03  0.00
  YS02006556YS02006558    1.00   0.00  0.00  0.00  1.00  0.00  0.00  0.00  0.00  0.00
  YS02006558YS02006561    1.00   0.18  0.00  0.00  0.05  0.77  0.00  0.00  0.18  0.00
  YS02006561YS02001783    1.00   0.18  0.00  0.00  0.09  0.73  0.00  0.00  0.69  0.00
  YS02163301YS02001633    1.00   0.00  0.15  0.00  0.85  0.00  0.00  0.00  0.00  0.00
  YS02163601YS02164001    1.00   0.00  0.08  0.00  0.92  0.00  0.00  0.00  0.00  0.00
  YS02164001YS02001641    1.00   0.01  0.07  0.00  0.92  0.00  0.00  0.00  0.06  0.00
  
  
  *************************
  Conduit Surcharge Summary
  *************************
  
  ----------------------------------------------------------------------------
                                                           Hours        Hours 
                         --------- Hours Full --------   Above Full   Capacity
  Conduit                Both Ends  Upstream  Dnstream   Normal Flow   Limited
  ----------------------------------------------------------------------------
  WS02003072WS02003073        0.01      0.01      0.01      0.77         0.01
  WS02004403WS02004404        0.01      0.01      0.01      0.01         0.01
  WS02004404WS02004405        0.01      0.01      0.01      2.43         0.01
  WS02004405WS02004406        0.01      0.01      0.01      0.41         0.01
  WS02006109WS02006110        0.42      0.42      1.25      0.50         0.01
  WS02006110WS02006113        0.01      0.01      1.23      0.01         0.01
  WS02006111WS02006112        0.01      0.01      1.53      0.01         0.01
  WS02006112WS02006115        0.01      0.01      0.54      0.01         0.01
  WS02006228WS02006109        1.22      1.24      1.22      1.69         1.22
  WS02006229WS02006228        1.22      1.22      1.22      1.41         1.21
  WS02006230WS02006229        1.30      1.38      1.30      3.13         1.30
  WS02006231WS02006230        0.43      0.43      0.56      2.76         0.01
  WS02006232WS02006231        0.52      0.52      1.25      0.57         0.01
  WS02006234WS02006232        1.18      1.18      1.25      0.55         0.55
  WS02006235WS02006234        0.79      0.79      1.19      2.45         0.01
  WS02006238WS02006235        1.21      1.21      1.25      0.01         0.01
  WS02006239WS02006238        1.22      1.23      1.22      1.15         1.01
  WS02006240WS02006239        1.20      1.21      1.20      1.16         0.95
  WS02006242WS02006240        1.21      1.21      1.24      1.31         0.01
  WS02006243WS02006242        1.16      1.16      1.23      0.01         0.03
  WS02006245WS02006243        1.13      1.13      1.16      0.71         0.70
  WS02006247WS02006245        1.13      1.14      1.13      2.17         1.12
  WS02006248WS02006247        1.12      1.12      1.13      0.01         0.03
  WS02006249WS02006248        1.11      1.11      1.11      2.11         0.01
  WS02006251WS02006249        1.11      1.11      1.11      1.26         1.05
  WS02006252WS02006251        1.33      1.33      1.36      1.33         0.01
  WS02006256WS02006235        2.53      2.57      6.65      1.07         0.01
  YS02001580YS02001583        0.55      0.55      0.60      0.01         0.01
  YS02001583YS02001586        0.55      0.55      0.67      0.01         0.01
  YS02001586YS02001590        0.67      0.67      0.74      0.01         0.01
  YS02001590YS02001593        0.74      0.74      0.76      0.77         0.01
  YS02001593YS02001596        0.76      0.76      0.87      0.01         0.01
  YS02001596YS02001600        0.92      0.92      1.02      0.01         0.01
  YS02001600YS02001601        1.08      1.08      1.37      0.01         0.01
  YS02001601YS02001602        1.25      1.25      1.42      1.04         0.01
  YS02001602YS02001605        1.20      1.20      1.25      2.33         0.01
  YS02001605YS02001607        1.15      1.20      1.15      1.33         1.15
  YS02001607YS02001610        0.71      0.71      0.74      0.01         0.01
  YS02001610YS02001613        0.70      0.70      0.74      0.01         0.01
  YS02001613YS02001616        0.66      0.66      0.70      0.01         0.01
  YS02001616YS02001619        0.65      0.65      0.66      0.01         0.01
  YS02001619YS02001622        0.65      0.65      0.65      0.78         0.63
  YS02001622YS02001625        0.65      0.65      0.83      0.01         0.01
  YS02001625YS02001629        0.59      0.59      0.83      0.01         0.01
  YS02001629YS02163301        0.82      0.82      0.83      0.25         0.24
  YS02001633YS02163601        0.85      0.85      0.88      0.38         0.38
  YS02001641YS02001644        0.74      0.77      0.74      1.47         0.73
  YS02001644YS02001647        0.51      0.51      0.74      0.03         0.01
  YS02001647YS02001649        0.51      0.51      0.60      0.01         0.01
  YS02001649YS02001757        0.60      0.60      0.66      0.13         0.09
  YS02001652YS02001649        0.45      0.45      0.60      0.01         0.01
  YS02001655YS02001652        0.30      0.30      0.43      0.01         0.01
  YS02001658YS02001655        0.17      0.17      0.30      0.01         0.01
  YS02001661YS02001658        0.01      0.01      0.17      0.01         0.01
  YS02001664YS02001661        0.01      0.01      0.05      0.01         0.01
  YS02001745YS02001748        0.01      0.01      0.11      0.01         0.01
  YS02001748YS02001751        0.15      0.15      0.22      0.01         0.01
  YS02001751YS02001754        0.22      0.22      0.34      0.01         0.01
  YS02001754YS02001757        0.38      0.38      0.66      0.01         0.01
  YS02001757CaochengTiaoxuchi        0.62      0.66      1.06      0.37         0.28
  YS02001759YS02001757        0.56      0.56      0.66      0.01         0.01
  YS02001762YS02001759        0.54      0.54      0.56      0.01         0.02
  YS02001765YS02001762        0.49      0.49      0.54      0.01         0.01
  YS02001767YS02001765        0.46      0.46      0.49      0.01         0.03
  YS02001770YS02001767        0.46      0.46      0.46      0.50         0.34
  YS02001774YS02001770        0.45      0.45      0.52      0.01         0.01
  YS02001779YS02001774        0.34      0.34      0.52      0.01         0.01
  YS02001783YS02001784        0.46      0.49      0.46      0.65         0.46
  YS02001784YS02001785        0.36      0.46      0.36      0.90         0.36
  YS02001786YS02001788        0.01      0.36      0.01      0.78         0.01
  YS02001790YS02001791        0.01      0.01      0.01      0.45         0.01
  YS02001793JiankangQianchi        0.01      0.01      6.29      0.01         0.01
  YS02001882YS02001884        0.44      0.44      0.44      0.01         0.01
  YS02001884YS02001887        0.47      0.47      0.48      0.01         0.01
  YS02001887YS02001890        0.49      0.49      0.51      0.09         0.01
  YS02001890YS02001895        0.42      0.42      0.52      0.01         0.01
  YS02001895YS02001898        0.41      0.41      0.42      0.01         0.01
  YS02001898YS02001901        0.43      0.43      0.46      0.01         0.01
  YS02001901YS02001904        0.46      0.46      0.46      0.01         0.01
  YS02001904YS02001907        0.46      0.46      0.76      0.01         0.01
  YS02001907YS02006553        0.92      0.92      0.99      0.01         0.01
  YS02001910YS02001907        0.52      0.52      0.73      0.01         0.01
  YS02001915YS02001910        0.43      0.43      0.52      0.01         0.01
  YS02001918YS02001915        0.35      0.35      0.43      0.01         0.01
  YS02001920YS02001918        0.35      0.35      0.36      0.01         0.01
  YS02001923YS02001920        0.31      0.31      0.36      0.01         0.01
  YS02001926YS02001923        0.05      0.05      0.11      0.01         0.01
  YS02001929YS02001926        0.01      0.01      0.11      0.01         0.01
  YS02006553YS02006556        0.62      0.62      0.75      0.01         0.01
  YS02006556YS02006558        0.68      0.68      0.77      0.01         0.01
  YS02006558YS02006561        0.38      0.60      0.38      0.86         0.38
  YS02006561YS02001783        0.31      0.31      0.49      0.01         0.01
  YS02163301YS02001633        0.83      0.83      0.87      0.01         0.01
  YS02163601YS02164001        0.78      0.78      0.88      0.11         0.01
  YS02164001YS02001641        0.77      0.78      0.77      0.71         0.58
  
  
  ***************
  Pumping Summary
  ***************
  
  ---------------------------------------------------------------------------------------------------------
                                                  Min       Avg       Max     Total     Power    % Time Off
                        Percent   Number of      Flow      Flow      Flow    Volume     Usage    Pump Curve
  Pump                 Utilized   Start-Ups       LPS       LPS       LPS  10^6 ltr     Kw-hr    Low   High
  ---------------------------------------------------------------------------------------------------------
  CC-R1                   19.35          28      0.00    683.00    683.00     3.807     68.91    0.0   31.8
  CC-R2                   23.77          28      0.00    683.00    683.00     4.675     83.53    0.0   49.4
  CC-S1                   23.59          28      0.00    200.00    200.00     1.359      8.14    0.0    0.0
  CC-S2                   22.31          22      0.00    200.00    200.00     1.285      7.78    0.0    0.0
  JK-R1                    6.02          16      0.00   1000.00   1000.00     1.733     19.00    0.0    0.0
  JK-R2                    4.18          17      0.00   1000.00   1000.00     1.205     10.35    0.0    0.0
  JK-S                    12.75          38      0.00    300.00    300.00     1.102     18.36    0.0    0.0
  

  Analysis begun on:  Mon Dec 30 10:13:18 2024
  Analysis ended on:  Mon Dec 30 10:13:19 2024
  Total elapsed time: 00:00:01