
  EPA STORM WATER MANAGEMENT MODEL - VERSION 5.2 (Build 5.2.4)
  PYSWMM TOOLKIT API - VERSION v1.0 (2023-11-27)
  ------------------------------------------------------------

  WARNING 04: minimum elevation drop used for Conduit WS02004404WS02004405
  WARNING 03: negative offset ignored for Link YS02001904YS02001907
  
  ****************
  Analysis Options
  ****************
  Flow Units ............... LPS
  Process Models:
    Rainfall/Runoff ........ YES
    RDII ................... NO
    Snowmelt ............... NO
    Groundwater ............ NO
    Flow Routing ........... YES
    Ponding Allowed ........ NO
    Water Quality .......... NO
  Infiltration Method ...... HORTON
  Flow Routing Method ...... DYNWAVE
  Surcharge Method ......... EXTRAN
  Starting Date ............ 08/28/2015 08:00:00
  Ending Date .............. 08/28/2015 16:00:00
  Antecedent Dry Days ...... 8.0
  Report Time Step ......... 00:01:00
  Wet Time Step ............ 00:01:00
  Dry Time Step ............ 00:01:00
  Routing Time Step ........ 30.00 sec
  Variable Time Step ....... YES
  Maximum Trials ........... 8
  Number of Threads ........ 4
  Head Tolerance ........... 0.001500 m
  
  
  **************************        Volume         Depth
  Runoff Quantity Continuity     hectare-m            mm
  **************************     ---------       -------
  Total Precipitation ......         2.133        64.297
  Evaporation Loss .........         0.000         0.000
  Infiltration Loss ........         0.099         2.979
  Surface Runoff ...........         2.001        60.337
  Final Storage ............         0.033         0.994
  Continuity Error (%) .....        -0.021
  
  
  **************************        Volume        Volume
  Flow Routing Continuity        hectare-m      10^6 ltr
  **************************     ---------     ---------
  Dry Weather Inflow .......         0.025         0.251
  Wet Weather Inflow .......         2.002        20.018
  Groundwater Inflow .......         0.000         0.000
  RDII Inflow ..............         0.000         0.000
  External Inflow ..........         0.083         0.834
  External Outflow .........         1.604        16.038
  Flooding Loss ............         0.577         5.774
  Evaporation Loss .........         0.000         0.000
  Exfiltration Loss ........         0.000         0.000
  Initial Stored Volume ....         0.243         2.431
  Final Stored Volume ......         0.182         1.818
  Continuity Error (%) .....        -0.412
  
  
  *************************
  Highest Continuity Errors
  *************************
  Node YS02001583 (-6.92%)
  Node YS02001884 (4.88%)
  Node WS02006256 (-2.52%)
  
  
  ***************************
  Time-Step Critical Elements
  ***************************
  Link WS02006252WS02006251 (33.55%)
  Link WS02006238WS02006235 (18.68%)
  Link WS02004404WS02004405 (17.09%)
  Link YS02001791YS02001793 (7.08%)
  Link WS02006235WS02006234 (6.14%)
  
  
  ********************************
  Highest Flow Instability Indexes
  ********************************
  Link WS02006113WS02006111 (37)
  Link WS02006238WS02006235 (20)
  Link WS02006111WS02006112 (20)
  Link WS02006256WS02006235 (19)
  Link WS02004404WS02004405 (19)
  
  
  *********************************
  Most Frequent Nonconverging Nodes
  *********************************
  Node CC-1 (13.90%)
  Node CC-2 (13.90%)
  Node JK-1 (13.90%)
  Node JK-2 (13.90%)
  Node WSC (13.90%)
  
  
  *************************
  Routing Time Step Summary
  *************************
  Minimum Time Step           :     0.01 sec
  Average Time Step           :     2.47 sec
  Maximum Time Step           :     6.43 sec
  % of Time in Steady State   :     0.00
  Average Iterations per Step :     3.43
  % of Steps Not Converging   :    13.90
  Time Step Frequencies       :
     30.000 - 13.228 sec      :     0.00 %
     13.228 -  5.833 sec      :    12.56 %
      5.833 -  2.572 sec      :    24.06 %
      2.572 -  1.134 sec      :    23.85 %
      1.134 -  0.500 sec      :    39.53 %
  
  
  ***************************
  Subcatchment Runoff Summary
  ***************************
  
  ------------------------------------------------------------------------------------------------------------------------------
                            Total      Total      Total      Total     Imperv       Perv      Total       Total     Peak  Runoff
                           Precip      Runon       Evap      Infil     Runoff     Runoff     Runoff      Runoff   Runoff   Coeff
  Subcatchment                 mm         mm         mm         mm         mm         mm         mm    10^6 ltr      LPS
  ------------------------------------------------------------------------------------------------------------------------------
  sub60                     64.30       0.00       0.00       1.81      55.38       5.91      61.29        0.81   503.57   0.953
  sub61                     64.30       0.00       0.00       2.62      52.24       8.32      60.55        1.11   696.55   0.942
  sub62                     64.30       0.00       0.00       1.20      57.87       3.94      61.81        1.69   982.69   0.961
  sub63                     64.30       0.00       0.00       4.80      44.68      13.85      58.53        1.33   770.64   0.910
  sub64                     64.30       0.00       0.00       2.43      53.45       7.22      60.66        1.46   793.67   0.943
  sub65                     64.30       0.00       0.00       2.10      54.69       6.26      60.94        1.68   888.21   0.948
  sub66                     64.30       0.00       0.00       5.90      44.58      12.74      57.32        2.67  1149.00   0.891
  sub67                     64.30       0.00       0.00       1.16      57.91       3.98      61.89        1.15   761.04   0.963
  sub68                     64.30       0.00       0.00       2.17      54.11       6.84      60.95        1.68  1004.04   0.948
  sub69                     64.30       0.00       0.00       1.92      54.54       7.73      62.27        2.31  1186.24   0.968
  sub70                     64.30       0.00       0.00       6.34      42.27      15.52      57.79        1.67   647.25   0.899
  sub71                     64.30       0.00       0.00       1.23      57.83       3.91      61.74        1.61   861.86   0.960
  sub72                     64.30       0.00       0.00       1.10      58.39       3.41      61.80        0.85   415.82   0.961
  
  
  ******************
  Node Depth Summary
  ******************
  
  ---------------------------------------------------------------------------------
                                 Average  Maximum  Maximum  Time of Max    Reported
                                   Depth    Depth      HGL   Occurrence   Max Depth
  Node                 Type       Meters   Meters   Meters  days hr:min      Meters
  ---------------------------------------------------------------------------------
  WS02003060           JUNCTION     0.21     0.38     5.32     0  02:30        0.38
  WS02003066           JUNCTION     0.17     0.30     5.85     0  02:29        0.30
  WS02003067           JUNCTION     0.46     0.70     6.02     0  02:29        0.70
  WS02003069           JUNCTION     0.24     0.43     5.02     0  02:30        0.43
  WS02003072           JUNCTION     0.29     0.50     4.87     0  02:31        0.50
  WS02003073           JUNCTION     0.16     0.30     4.36     0  02:32        0.30
  WS02004401           JUNCTION     0.55     0.88     6.88     0  02:26        0.88
  WS02004402           JUNCTION     0.58     0.91     6.87     0  02:26        0.90
  WS02004403           JUNCTION     0.60     0.92     6.85     0  02:26        0.92
  WS02004404           JUNCTION     0.67     1.05     6.90     0  02:26        1.00
  WS02004405           JUNCTION     0.66     0.97     6.82     0  02:29        0.96
  WS02004406           JUNCTION     0.67     0.96     6.79     0  02:27        0.96
  WS02004407           JUNCTION     0.16     0.30     6.61     0  02:24        0.30
  WS02004409           JUNCTION     0.35     0.67     6.44     0  02:27        0.67
  WS02004410           JUNCTION     0.37     0.68     6.40     0  02:28        0.68
  WS02004411           JUNCTION     0.39     0.69     6.37     0  02:28        0.69
  WS02004412           JUNCTION     0.41     0.70     6.34     0  02:28        0.70
  WS02004413           JUNCTION     0.56     0.86     6.33     0  02:29        0.86
  WS02006109           JUNCTION     0.62     1.16     7.77     0  02:06        1.16
  WS02006110           JUNCTION     0.62     1.21     7.80     0  02:06        1.21
  WS02006111           JUNCTION     0.16     0.29     6.99     0  02:40        0.29
  WS02006112           JUNCTION     0.70     1.09     6.97     0  02:26        1.08
  WS02006113           JUNCTION     0.25     0.46     7.35     0  02:37        0.46
  WS02006115           JUNCTION     0.44     0.78     6.92     0  02:26        0.78
  WS02006116           JUNCTION     0.52     0.86     6.90     0  02:26        0.86
  WS02006228           JUNCTION     0.61     1.17     7.82     0  02:35        1.17
  WS02006229           JUNCTION     0.58     1.21     7.90     0  02:35        1.13
  WS02006230           JUNCTION     0.58     1.41     8.16     0  02:35        1.15
  WS02006231           JUNCTION     0.40     1.26     8.38     0  02:35        0.90
  WS02006232           JUNCTION     0.53     1.46     8.50     0  02:35        1.11
  WS02006234           JUNCTION     0.45     1.62     8.77     0  03:20        1.16
  WS02006235           JUNCTION     0.49     1.74     8.90     0  03:20        1.26
  WS02006238           JUNCTION     0.52     1.77     8.92     0  03:20        1.30
  WS02006239           JUNCTION     0.48     1.67     8.88     0  03:20        1.29
  WS02006240           JUNCTION     0.45     1.60     8.89     0  03:20        1.26
  WS02006242           JUNCTION     0.51     1.55     8.82     0  01:51        1.32
  WS02006243           JUNCTION     0.43     1.41     8.83     0  02:05        1.21
  WS02006245           JUNCTION     0.43     1.33     8.81     0  02:05        1.18
  WS02006247           JUNCTION     0.44     1.27     8.77     0  02:05        1.18
  WS02006248           JUNCTION     0.41     1.10     8.69     0  02:05        1.10
  WS02006249           JUNCTION     0.43     1.09     8.69     0  01:52        1.09
  WS02006251           JUNCTION     0.43     1.45     9.12     0  02:35        1.13
  WS02006252           JUNCTION     0.31     1.50     9.74     0  00:00        0.86
  WS02006256           JUNCTION     1.03     2.35     9.28     0  00:00        2.35
  WSF200               JUNCTION     0.15     0.29     5.53     0  02:29        0.29
  YS02001580           JUNCTION     0.12     1.05     9.59     0  01:44        1.05
  YS02001583           JUNCTION     0.15     1.11     9.60     0  01:44        0.96
  YS02001586           JUNCTION     0.24     1.13     9.30     0  01:44        1.13
  YS02001590           JUNCTION     0.35     1.40     9.26     0  01:44        1.38
  YS02001593           JUNCTION     0.28     1.36     9.22     0  01:44        1.30
  YS02001596           JUNCTION     0.37     1.70     9.12     0  01:44        1.65
  YS02001600           JUNCTION     0.45     1.87     9.00     0  01:44        1.87
  YS02001601           JUNCTION     0.64     2.06     8.90     0  01:44        2.06
  YS02001602           JUNCTION     0.55     1.87     8.77     0  01:44        1.87
  YS02001605           JUNCTION     0.51     1.78     8.68     0  01:44        1.78
  YS02001607           JUNCTION     0.49     1.65     8.50     0  02:15        1.65
  YS02001610           JUNCTION     0.53     1.68     8.48     0  01:44        1.68
  YS02001613           JUNCTION     0.50     1.66     8.50     0  01:44        1.65
  YS02001616           JUNCTION     0.43     1.61     8.52     0  01:47        1.61
  YS02001619           JUNCTION     0.41     1.60     8.53     0  01:47        1.60
  YS02001622           JUNCTION     0.40     1.61     8.52     0  01:44        1.57
  YS02001625           JUNCTION     0.64     1.78     8.38     0  01:44        1.78
  YS02001629           JUNCTION     0.53     1.85     8.40     0  01:44        1.85
  YS02001633           JUNCTION     0.60     2.08     8.53     0  01:46        1.99
  YS02001641           JUNCTION     0.58     1.97     8.41     0  01:47        1.94
  YS02001644           JUNCTION     0.57     1.92     8.35     0  01:47        1.92
  YS02001647           JUNCTION     0.36     1.82     8.43     0  01:48        1.73
  YS02001649           JUNCTION     0.41     2.05     8.44     0  01:48        1.92
  YS02001652           JUNCTION     0.30     2.16     8.76     0  01:48        1.76
  YS02001655           JUNCTION     0.23     2.20     9.05     0  01:48        1.54
  YS02001658           JUNCTION     0.16     2.30     9.44     0  01:48        1.28
  YS02001661           JUNCTION     0.17     2.33     9.73     0  01:48        1.04
  YS02001664           JUNCTION     0.07     0.83     8.76     0  01:49        0.71
  YS02001745           JUNCTION     0.08     2.35     9.87     0  01:48        0.85
  YS02001748           JUNCTION     0.15     2.27     9.35     0  01:48        1.25
  YS02001751           JUNCTION     0.19     2.20     9.08     0  01:48        1.42
  YS02001754           JUNCTION     0.26     2.20     8.81     0  01:47        1.65
  YS02001757           JUNCTION     0.42     2.21     8.47     0  01:48        1.96
  YS02001759           JUNCTION     0.36     2.21     8.57     0  01:48        1.96
  YS02001762           JUNCTION     0.36     2.15     8.55     0  01:48        1.95
  YS02001765           JUNCTION     0.34     2.10     8.55     0  01:48        1.91
  YS02001767           JUNCTION     0.34     2.03     8.52     0  01:47        1.89
  YS02001770           JUNCTION     0.35     1.95     8.44     0  01:47        1.92
  YS02001774           JUNCTION     0.41     2.05     8.47     0  01:47        1.97
  YS02001779           JUNCTION     0.25     1.68     8.37     0  01:47        1.68
  YS02001783           JUNCTION     0.28     1.60     7.74     0  01:46        1.23
  YS02001784           JUNCTION     0.29     1.32     7.39     0  01:46        1.11
  YS02001786           JUNCTION     0.24     1.12     7.15     0  01:46        0.87
  YS02001788           JUNCTION     0.17     0.62     6.60     0  01:50        0.62
  YS02001790           JUNCTION     0.21     0.73     6.37     0  01:50        0.72
  YS02001791           JUNCTION     0.13     0.44     5.91     0  01:50        0.43
  YS02001793           JUNCTION     0.07     0.29     5.12     0  01:54        0.27
  YS02001882           JUNCTION     0.35     1.83     8.55     0  01:45        1.64
  YS02001884           JUNCTION     0.44     1.91     8.53     0  01:45        1.74
  YS02001887           JUNCTION     0.51     1.91     8.45     0  01:45        1.82
  YS02001890           JUNCTION     0.54     1.81     8.32     0  01:45        1.81
  YS02001895           JUNCTION     0.32     1.73     8.48     0  01:45        1.56
  YS02001898           JUNCTION     0.33     1.77     8.51     0  01:45        1.55
  YS02001901           JUNCTION     0.43     1.87     8.48     0  01:45        1.67
  YS02001904           JUNCTION     0.42     1.85     8.48     0  01:45        1.64
  YS02001907           JUNCTION     0.71     1.96     8.25     0  01:45        1.96
  YS02001910           JUNCTION     0.53     2.10     8.61     0  01:45        1.86
  YS02001915           JUNCTION     0.36     2.00     8.72     0  01:45        1.74
  YS02001918           JUNCTION     0.21     1.81     8.88     0  01:46        1.45
  YS02001920           JUNCTION     0.29     2.14     9.15     0  01:47        1.54
  YS02001923           JUNCTION     0.16     2.03     9.29     0  01:47        1.32
  YS02001926           JUNCTION     0.19     1.90     9.35     0  01:47        1.16
  YS02001929           JUNCTION     0.11     1.78     9.47     0  01:47        0.94
  YS02006553           JUNCTION     0.72     2.07     8.36     0  01:46        1.97
  YS02006556           JUNCTION     0.69     2.17     8.48     0  01:46        1.95
  YS02006558           JUNCTION     0.74     2.24     8.51     0  01:46        2.00
  YS02006561           JUNCTION     0.18     1.44     8.10     0  01:46        0.89
  YS02163301           JUNCTION     0.55     1.96     8.47     0  01:46        1.90
  YS02163601           JUNCTION     0.63     2.08     8.48     0  01:46        2.01
  YS02164001           JUNCTION     0.57     2.00     8.46     0  01:46        1.93
  CC-1                 OUTFALL      0.00     0.00     0.00     0  00:00        0.00
  CC-2                 OUTFALL      0.00     0.00     0.00     0  00:00        0.00
  JK-1                 OUTFALL      0.00     0.00     0.00     0  00:00        0.00
  JK-2                 OUTFALL      0.00     0.00     0.00     0  00:00        0.00
  WSC                  OUTFALL      0.16     0.30     0.97     0  02:32        0.30
  CC-storage           STORAGE      0.81     1.65     7.15     0  02:22        1.65
  JK-storage           STORAGE      1.45     4.24     5.04     0  02:05        4.13
  
  
  *******************
  Node Inflow Summary
  *******************
  
  -------------------------------------------------------------------------------------------------
                                  Maximum  Maximum                  Lateral       Total        Flow
                                  Lateral    Total  Time of Max      Inflow      Inflow     Balance
                                   Inflow   Inflow   Occurrence      Volume      Volume       Error
  Node                 Type           LPS      LPS  days hr:min    10^6 ltr    10^6 ltr     Percent
  -------------------------------------------------------------------------------------------------
  WS02003060           JUNCTION     16.53   557.46     0  02:29       0.476        4.52       0.052
  WS02003066           JUNCTION      0.00   540.27     0  02:29           0        4.05       0.036
  WS02003067           JUNCTION      0.00   540.17     0  02:29           0        4.05       0.104
  WS02003069           JUNCTION      0.32   557.13     0  02:30     0.00922        4.53       0.091
  WS02003072           JUNCTION      0.00   556.58     0  02:31           0        4.52       0.158
  WS02003073           JUNCTION      1.82   558.21     0  02:31      0.0524        4.57       0.127
  WS02004401           JUNCTION      0.00   541.79     0  02:27           0        4.15       0.253
  WS02004402           JUNCTION      0.00   541.18     0  02:16           0        4.14       0.256
  WS02004403           JUNCTION      0.00   542.44     0  02:29           0        4.13       0.249
  WS02004404           JUNCTION      0.16   564.09     0  02:17     0.00467        4.12       0.160
  WS02004405           JUNCTION      0.04   610.14     0  02:17      0.0011        4.12       0.262
  WS02004406           JUNCTION      0.00   547.18     0  02:24           0        4.11       0.515
  WS02004407           JUNCTION      0.00   541.93     0  02:24           0        4.09       0.031
  WS02004409           JUNCTION      0.00   541.12     0  02:24           0        4.08       0.069
  WS02004410           JUNCTION      0.00   540.81     0  02:28           0        4.08       0.113
  WS02004411           JUNCTION      0.00   540.91     0  02:28           0        4.08       0.141
  WS02004412           JUNCTION      0.00   540.46     0  02:28           0        4.07       0.186
  WS02004413           JUNCTION      0.00   540.76     0  02:28           0        4.06       0.339
  WS02006109           JUNCTION      1.23   558.91     0  02:35      0.0354         4.2       0.170
  WS02006110           JUNCTION      0.00   559.64     0  02:35           0        4.19       0.170
  WS02006111           JUNCTION      0.00   561.85     0  02:37           0        4.18       0.025
  WS02006112           JUNCTION      0.00   543.74     0  02:40           0        4.18       0.454
  WS02006113           JUNCTION      0.00   571.21     0  02:36           0        4.18       0.045
  WS02006115           JUNCTION      0.00   551.91     0  02:37           0        4.16       0.170
  WS02006116           JUNCTION      0.00   541.52     0  02:27           0        4.15       0.119
  WS02006228           JUNCTION      0.00   556.51     0  02:35           0        4.17       0.077
  WS02006229           JUNCTION      0.00   556.67     0  02:35           0        4.17       0.139
  WS02006230           JUNCTION     10.28   592.08     0  02:35       0.296        4.18       0.145
  WS02006231           JUNCTION      0.00   585.83     0  02:05           0        3.88      -0.056
  WS02006232           JUNCTION      0.00   584.43     0  02:05           0        3.89       0.250
  WS02006234           JUNCTION      0.00   576.15     0  02:05           0        3.87      -0.435
  WS02006235           JUNCTION      0.00   565.03     0  02:05           0        3.99       0.430
  WS02006238           JUNCTION      0.00   431.69     0  03:36           0        2.99      -0.088
  WS02006239           JUNCTION      0.00   433.11     0  03:36           0        2.91      -0.101
  WS02006240           JUNCTION      0.00   428.63     0  03:36           0        2.87      -0.051
  WS02006242           JUNCTION      0.00   427.55     0  03:36           0        2.86      -0.009
  WS02006243           JUNCTION      0.00   426.29     0  03:36           0        2.86      -0.053
  WS02006245           JUNCTION      0.00   425.80     0  03:36           0        2.87       0.391
  WS02006247           JUNCTION      0.00   425.87     0  03:36           0        2.87      -0.006
  WS02006248           JUNCTION      0.00   427.62     0  03:36           0        2.87       0.018
  WS02006249           JUNCTION      0.00   459.02     0  00:00           0        3.07       0.428
  WS02006251           JUNCTION      0.08   407.27     0  01:53     0.00222        3.07       0.028
  WS02006252           JUNCTION      0.00   400.00     0  00:00           0        3.06      -0.381
  WS02006256           JUNCTION      0.00   300.00     0  00:00           0        1.42      -2.457
  WSF200               JUNCTION      0.00   540.37     0  02:29           0        4.04       0.012
  YS02001580           JUNCTION      0.00   124.73     0  01:44           0     0.00431       0.337
  YS02001583           JUNCTION      0.00   203.04     0  01:44           0      0.0149      -6.470
  YS02001586           JUNCTION    647.25   647.28     0  01:54        1.67        1.68       0.085
  YS02001590           JUNCTION      0.00   318.38     0  02:15           0        1.35      -0.038
  YS02001593           JUNCTION      0.00   318.02     0  02:08           0        1.35       0.009
  YS02001596           JUNCTION      0.00   318.04     0  02:09           0        1.35      -0.006
  YS02001600           JUNCTION      0.00   317.97     0  02:05           0        1.35       0.006
  YS02001601           JUNCTION   1186.24  1503.73     0  01:52        2.31        3.66       0.010
  YS02001602           JUNCTION      0.00   547.77     0  01:44           0        2.29       0.020
  YS02001605           JUNCTION      0.00   548.07     0  01:44           0        2.17       0.024
  YS02001607           JUNCTION      0.00   548.04     0  01:44           0        2.17       0.093
  YS02001610           JUNCTION      0.00   605.01     0  01:53           0        2.33       0.091
  YS02001613           JUNCTION      0.00   546.54     0  01:44           0        1.85       0.086
  YS02001616           JUNCTION      0.00   553.21     0  01:44           0        1.85       0.026
  YS02001619           JUNCTION   1149.00  1149.00     0  01:53        2.67        4.37       0.008
  YS02001622           JUNCTION      0.00   942.48     0  01:44           0        4.21      -0.006
  YS02001625           JUNCTION      0.00  1228.23     0  01:52           0        4.37       0.196
  YS02001629           JUNCTION      0.00   944.86     0  01:44           0        3.45       0.001
  YS02001633           JUNCTION    888.41  1431.35     0  01:46        1.68        4.93       0.066
  YS02001641           JUNCTION      0.00  1429.53     0  01:46           0        4.75       0.055
  YS02001644           JUNCTION    793.71  1888.16     0  01:46        1.46         6.2       0.046
  YS02001647           JUNCTION      0.00  1887.91     0  01:46           0        5.94       0.006
  YS02001649           JUNCTION      0.00  2191.48     0  01:46           0        7.27       0.002
  YS02001652           JUNCTION      0.00   951.00     0  01:49           0        1.33      -0.112
  YS02001655           JUNCTION      0.15   950.94     0  01:49     0.00443        1.33       0.002
  YS02001658           JUNCTION      0.00   950.99     0  01:49           0        1.33      -0.091
  YS02001661           JUNCTION      0.00   941.52     0  01:49           0        1.33       0.031
  YS02001664           JUNCTION    770.64   770.64     0  01:51        1.33        1.33      -0.014
  YS02001745           JUNCTION    503.57   670.01     0  01:48       0.806       0.807       0.230
  YS02001748           JUNCTION      0.04   684.88     0  01:48      0.0013       0.809      -0.381
  YS02001751           JUNCTION      0.01   628.69     0  01:49    0.000317       0.817       0.095
  YS02001754           JUNCTION      0.26   629.46     0  01:49     0.00749       0.831      -0.202
  YS02001757           JUNCTION      0.00  3524.23     0  01:49           0        10.8       0.046
  YS02001759           JUNCTION    696.59  1477.18     0  01:48        1.11        2.72      -0.012
  YS02001762           JUNCTION      0.00   850.41     0  01:48           0        1.61      -0.007
  YS02001765           JUNCTION      0.00   850.39     0  01:48           0        1.61       0.003
  YS02001767           JUNCTION      0.54   850.58     0  01:48      0.0154        1.61       0.001
  YS02001770           JUNCTION    982.85   982.85     0  01:51         1.7        1.74      -0.022
  YS02001774           JUNCTION      0.00   480.57     0  01:47           0       0.168       0.569
  YS02001779           JUNCTION      0.01   486.67     0  01:47    0.000144       0.124      -0.445
  YS02001783           JUNCTION      0.00  1163.98     0  01:49           0        4.11       0.003
  YS02001784           JUNCTION      1.06  1165.10     0  01:49      0.0305        4.14       0.011
  YS02001786           JUNCTION      0.06  1165.10     0  01:49     0.00162        4.14       0.016
  YS02001788           JUNCTION      0.07  1165.27     0  01:49     0.00204        4.14       0.007
  YS02001790           JUNCTION      0.15  1169.55     0  01:55     0.00446        4.15       0.026
  YS02001791           JUNCTION      0.00  1293.41     0  01:50           0        4.15      -0.027
  YS02001793           JUNCTION      0.00  1242.03     0  01:55           0        4.15       0.006
  YS02001882           JUNCTION      0.00    60.75     0  01:45           0      0.0127       4.283
  YS02001884           JUNCTION      0.00   104.10     0  01:45           0      0.0483       5.128
  YS02001887           JUNCTION    761.49   762.74     0  01:50        1.16         1.2       0.353
  YS02001890           JUNCTION      0.00   762.14     0  01:50           0        1.16       0.425
  YS02001895           JUNCTION      0.00   517.56     0  01:55           0        1.07       0.152
  YS02001898           JUNCTION      0.00   517.58     0  01:53           0        1.07      -0.010
  YS02001901           JUNCTION      0.00   517.58     0  01:55           0        1.08       0.293
  YS02001904           JUNCTION      0.00   517.68     0  01:55           0        1.08       0.236
  YS02001907           JUNCTION      0.00  1821.00     0  01:51           0        3.62       0.467
  YS02001910           JUNCTION      0.00  1305.41     0  01:51           0        2.54       0.278
  YS02001915           JUNCTION    861.88  1304.84     0  01:51        1.62        2.59       0.054
  YS02001918           JUNCTION      0.00   518.51     0  01:46           0        1.01      -0.005
  YS02001920           JUNCTION      2.87   499.90     0  01:47      0.0827       0.991       0.097
  YS02001923           JUNCTION      0.04   525.90     0  01:46     0.00109       0.891      -0.043
  YS02001926           JUNCTION      0.05   896.51     0  01:47      0.0015        0.87      -0.018
  YS02001929           JUNCTION    415.82   718.20     0  01:47        0.85       0.855      -0.014
  YS02006553           JUNCTION      0.00   794.36     0  02:09           0        2.46       0.483
  YS02006556           JUNCTION      0.00   794.73     0  02:09           0        2.47       0.318
  YS02006558           JUNCTION   1004.92  1166.42     0  01:46         1.7        4.14       0.081
  YS02006561           JUNCTION      0.00  1165.80     0  01:46           0        4.11       0.001
  YS02163301           JUNCTION      0.00   930.63     0  01:46           0        3.44       0.042
  YS02163601           JUNCTION      0.11  1431.00     0  01:46     0.00317        4.75       0.101
  YS02164001           JUNCTION      0.00  1430.41     0  01:46           0        4.74       0.044
  CC-1                 OUTFALL       0.00   683.00     0  00:00           0        4.71       0.000
  CC-2                 OUTFALL       0.00   683.00     0  00:00           0         3.9       0.000
  JK-1                 OUTFALL       0.00  1000.00     0  00:00           0        1.44       0.000
  JK-2                 OUTFALL       0.00  1000.00     0  00:00           0        1.42       0.000
  WSC                  OUTFALL       0.00   558.11     0  02:32           0        4.56       0.000
  CC-storage           STORAGE       0.00  3524.36     0  01:49           0          13      -0.241
  JK-storage           STORAGE       0.00  1280.64     0  01:55           0         4.3      -0.400
  
  
  **********************
  Node Surcharge Summary
  **********************
  
  Surcharging occurs when water rises above the top of the highest conduit.
  ---------------------------------------------------------------------
                                               Max. Height   Min. Depth
                                   Hours       Above Crown    Below Rim
  Node                 Type      Surcharged         Meters       Meters
  ---------------------------------------------------------------------
  WS02004404           JUNCTION        0.04          0.054        2.726
  WS02006109           JUNCTION        1.60          0.336        1.484
  WS02006110           JUNCTION        0.66          0.305        1.545
  WS02006112           JUNCTION        0.73          0.091        1.589
  WS02006228           JUNCTION        1.60          0.337        1.863
  WS02006229           JUNCTION        1.61          0.407        2.043
  WS02006230           JUNCTION        0.68          0.334        1.236
  WS02006231           JUNCTION        0.75          0.546        0.984
  WS02006232           JUNCTION        1.66          0.757        0.723
  WS02006234           JUNCTION        0.98          0.896        0.344
  WS02006235           JUNCTION        1.57          1.029        0.261
  WS02006238           JUNCTION        1.60          1.053        0.377
  WS02006239           JUNCTION        1.58          0.929        0.361
  WS02006240           JUNCTION        1.59          0.886        0.504
  WS02006242           JUNCTION        1.66          0.820        0.000
  WS02006243           JUNCTION        1.59          0.705        0.065
  WS02006245           JUNCTION        1.58          0.619        0.231
  WS02006247           JUNCTION        1.59          0.562        0.198
  WS02006248           JUNCTION        1.56          0.380        0.000
  WS02006249           JUNCTION        1.57          0.390        0.000
  WS02006251           JUNCTION        0.78          0.417        0.763
  WS02006252           JUNCTION        1.79          1.100        0.000
  WS02006256           JUNCTION        6.85          2.050        0.000
  YS02001580           JUNCTION        0.63          0.450        0.000
  YS02001583           JUNCTION        0.64          0.466        0.034
  YS02001586           JUNCTION        0.79          0.510        0.000
  YS02001590           JUNCTION        0.86          0.750        0.000
  YS02001593           JUNCTION        0.87          0.735        0.105
  YS02001596           JUNCTION        0.98          0.969        0.101
  YS02001600           JUNCTION        1.13          1.190        0.000
  YS02001601           JUNCTION        1.51          1.440        0.000
  YS02001602           JUNCTION        1.40          1.270        0.000
  YS02001605           JUNCTION        1.34          1.180        0.000
  YS02001607           JUNCTION        0.85          0.655        0.025
  YS02001610           JUNCTION        0.88          0.680        0.000
  YS02001613           JUNCTION        0.84          0.661        0.039
  YS02001616           JUNCTION        0.80          0.606        0.004
  YS02001619           JUNCTION        0.78          0.599        0.011
  YS02001622           JUNCTION        0.78          0.612        0.008
  YS02001625           JUNCTION        0.97          0.780        0.000
  YS02001629           JUNCTION        0.73          0.470        0.000
  YS02001633           JUNCTION        0.99          1.060        0.000
  YS02001641           JUNCTION        0.94          0.969        0.131
  YS02001644           JUNCTION        0.92          0.920        0.000
  YS02001647           JUNCTION        0.71          0.820        0.080
  YS02001649           JUNCTION        0.84          1.050        0.000
  YS02001652           JUNCTION        0.62          1.130        0.000
  YS02001655           JUNCTION        0.43          1.200        0.000
  YS02001658           JUNCTION        0.21          1.300        0.000
  YS02001661           JUNCTION        0.01          1.255        0.135
  YS02001745           JUNCTION        0.01          1.350        0.000
  YS02001748           JUNCTION        0.12          1.190        0.000
  YS02001751           JUNCTION        0.29          1.200        0.000
  YS02001754           JUNCTION        0.52          1.150        0.000
  YS02001757           JUNCTION        0.91          1.210        0.000
  YS02001759           JUNCTION        0.81          1.206        0.004
  YS02001762           JUNCTION        0.77          1.150        0.000
  YS02001765           JUNCTION        0.72          1.100        0.000
  YS02001767           JUNCTION        0.68          1.030        0.000
  YS02001770           JUNCTION        0.65          0.920        0.000
  YS02001774           JUNCTION        0.75          1.050        0.000
  YS02001779           JUNCTION        0.51          0.680        0.000
  YS02001783           JUNCTION        0.56          0.796        0.804
  YS02001784           JUNCTION        0.54          0.518        0.972
  YS02001786           JUNCTION        0.44          0.324        1.106
  YS02001882           JUNCTION        0.51          0.830        0.000
  YS02001884           JUNCTION        0.52          0.849        0.021
  YS02001887           JUNCTION        0.55          0.858        0.092
  YS02001890           JUNCTION        0.57          0.760        0.000
  YS02001895           JUNCTION        0.50          0.729        0.021
  YS02001898           JUNCTION        0.49          0.740        0.000
  YS02001901           JUNCTION        0.54          0.870        0.000
  YS02001904           JUNCTION        0.53          0.850        0.000
  YS02001907           JUNCTION        0.76          0.950        0.000
  YS02001910           JUNCTION        0.60          1.100        0.000
  YS02001915           JUNCTION        0.51          1.000        0.000
  YS02001918           JUNCTION        0.42          0.810        0.000
  YS02001920           JUNCTION        0.43          1.140        0.000
  YS02001923           JUNCTION        0.06          0.820        0.000
  YS02001926           JUNCTION        0.11          0.900        0.000
  YS02001929           JUNCTION        0.01          0.780        0.000
  YS02006553           JUNCTION        0.78          1.075        0.115
  YS02006556           JUNCTION        0.68          1.128        0.222
  YS02006558           JUNCTION        0.67          1.139        0.261
  YS02006561           JUNCTION        0.39          0.645        0.505
  YS02163301           JUNCTION        0.98          0.958        0.072
  YS02163601           JUNCTION        1.02          1.080        0.000
  YS02164001           JUNCTION        0.94          1.000        0.100
  
  
  *********************
  Node Flooding Summary
  *********************
  
  Flooding refers to all water that overflows a node, whether it ponds or not.
  --------------------------------------------------------------------------
                                                             Total   Maximum
                                 Maximum   Time of Max       Flood    Ponded
                        Hours       Rate    Occurrence      Volume     Depth
  Node                 Flooded       LPS   days hr:min    10^6 ltr    Meters
  --------------------------------------------------------------------------
  WS02006242              0.01     78.18      0  01:51       0.000     0.000
  WS02006248              0.01     11.73      0  02:05       0.000     0.000
  WS02006249              0.76    103.90      0  01:53       0.188     0.000
  WS02006252              0.01    245.63      0  00:00       0.000     0.000
  WS02006256              1.31    293.19      0  00:00       0.417     0.000
  YS02001580              0.01     91.03      0  01:44       0.000     0.000
  YS02001586              0.51    329.84      0  01:54       0.317     0.000
  YS02001590              0.01      2.70      0  01:44       0.000     0.000
  YS02001600              0.01      4.64      0  01:45       0.000     0.000
  YS02001601              0.71   1105.88      0  01:52       1.363     0.000
  YS02001602              0.61     61.95      0  02:07       0.123     0.000
  YS02001605              0.01      3.40      0  01:44       0.000     0.000
  YS02001610              0.53    604.86      0  01:53       0.627     0.000
  YS02001625              0.49   1227.77      0  01:52       1.096     0.000
  YS02001629              0.09    237.88      0  01:44       0.043     0.000
  YS02001633              0.01      3.93      0  01:46       0.000     0.000
  YS02001644              0.18    713.13      0  01:49       0.251     0.000
  YS02001649              0.01     58.54      0  01:48       0.000     0.000
  YS02001652              0.01     57.00      0  01:48       0.000     0.000
  YS02001655              0.01     56.37      0  01:48       0.000     0.000
  YS02001658              0.01    544.44      0  01:48       0.001     0.000
  YS02001745              0.01    117.78      0  01:48       0.000     0.000
  YS02001748              0.01    470.94      0  01:48       0.001     0.000
  YS02001751              0.01    252.95      0  01:48       0.000     0.000
  YS02001754              0.01    307.94      0  01:47       0.000     0.000
  YS02001757              0.01     27.50      0  01:48       0.000     0.000
  YS02001762              0.01     11.01      0  01:48       0.000     0.000
  YS02001765              0.01      7.30      0  01:48       0.000     0.000
  YS02001767              0.01    126.33      0  01:47       0.000     0.000
  YS02001770              0.01    188.68      0  01:47       0.000     0.000
  YS02001774              0.01    110.52      0  01:47       0.000     0.000
  YS02001779              0.15    445.76      0  01:47       0.105     0.000
  YS02001882              0.01      7.59      0  01:45       0.000     0.000
  YS02001890              0.15    247.52      0  01:50       0.077     0.000
  YS02001898              0.01     52.97      0  01:45       0.000     0.000
  YS02001901              0.01     33.23      0  01:45       0.000     0.000
  YS02001904              0.01     58.35      0  01:45       0.000     0.000
  YS02001907              0.36   1666.30      0  01:51       1.154     0.000
  YS02001910              0.01     16.75      0  01:45       0.000     0.000
  YS02001915              0.01    194.59      0  01:45       0.000     0.000
  YS02001918              0.01    169.78      0  01:47       0.002     0.000
  YS02001920              0.01     20.66      0  01:47       0.000     0.000
  YS02001923              0.01    127.46      0  01:47       0.000     0.000
  YS02001926              0.01    781.33      0  01:47       0.003     0.000
  YS02001929              0.01    395.45      0  01:47       0.003     0.000
  YS02163601              0.01      5.56      0  01:46       0.000     0.000
  
  
  **********************
  Storage Volume Summary
  **********************
  
  ------------------------------------------------------------------------------------------------
                         Average    Avg   Evap  Exfil     Maximum    Max    Time of Max    Maximum
                          Volume   Pcnt   Pcnt   Pcnt      Volume   Pcnt     Occurrence    Outflow
  Storage Unit           1000 m³   Full   Loss   Loss     1000 m³   Full    days hr:min        LPS
  ------------------------------------------------------------------------------------------------
  CC-storage               2.252   35.1    0.0    0.0       4.601   71.8       0  02:22    1783.53
  JK-storage               0.073   24.9    0.0    0.0       0.213   73.1       0  02:05    2300.00
  
  
  ***********************
  Outfall Loading Summary
  ***********************
  
  -----------------------------------------------------------
                         Flow       Avg       Max       Total
                         Freq      Flow      Flow      Volume
  Outfall Node           Pcnt       LPS       LPS    10^6 ltr
  -----------------------------------------------------------
  CC-1                  37.99    683.00    683.00       4.713
  CC-2                  30.49    683.00    683.00       3.903
  JK-1                   8.99   1000.00   1000.00       1.435
  JK-2                   7.06   1000.00   1000.00       1.425
  WSC                   99.95    224.36    558.11       4.562
  -----------------------------------------------------------
  System                36.90   3590.36   3924.01      16.038
  
  
  ********************
  Link Flow Summary
  ********************
  
  -----------------------------------------------------------------------------
                                 Maximum  Time of Max   Maximum    Max/    Max/
                                  |Flow|   Occurrence   |Veloc|    Full    Full
  Link                 Type          LPS  days hr:min     m/sec    Flow   Depth
  -----------------------------------------------------------------------------
  1                    CONDUIT    558.11     0  02:32      2.83    0.19    0.30
  WS02003060WS02003069 CONDUIT    556.81     0  02:30      1.64    0.22    0.34
  WS02003066WSF200     CONDUIT    540.37     0  02:29      2.86    0.09    0.22
  WS02003067WS02003066 CONDUIT    540.27     0  02:29      1.21    0.17    0.42
  WS02003069WS02003072 CONDUIT    556.58     0  02:31      1.37    0.27    0.39
  WS02003072WS02003073 CONDUIT    556.39     0  02:31      1.44    1.20    0.37
  WS02004401WS02004402 CONDUIT    541.18     0  02:16      1.04    0.65    0.89
  WS02004402WS02004403 CONDUIT    542.44     0  02:29      1.05    0.78    0.91
  WS02004403WS02004404 CONDUIT    563.93     0  02:17      1.05    0.41    0.96
  WS02004404WS02004405 CONDUIT    610.10     0  02:17      1.19    5.98    0.98
  WS02004405WS02004406 CONDUIT    547.18     0  02:24      1.18    1.08    0.96
  WS02004406WS02004407 CONDUIT    541.93     0  02:24      1.04    0.24    0.63
  WS02004407WS02004409 CONDUIT    541.12     0  02:24      1.49    0.19    0.48
  WS02004409WS02004410 CONDUIT    540.81     0  02:28      0.98    0.70    0.68
  WS02004410WS02004411 CONDUIT    540.91     0  02:28      0.94    0.74    0.69
  WS02004411WS02004412 CONDUIT    540.46     0  02:28      0.93    0.77    0.70
  WS02004412WS02004413 CONDUIT    540.76     0  02:28      0.97    0.36    0.78
  WS02004413WS02003067 CONDUIT    540.17     0  02:29      1.11    0.23    0.59
  WS02006109WS02006110 CONDUIT    559.64     0  02:35      1.11    1.08    1.00
  WS02006110WS02006113 CONDUIT    571.21     0  02:36      1.38    0.52    0.79
  WS02006111WS02006112 CONDUIT    543.74     0  02:40      1.85    0.26    0.67
  WS02006112WS02006115 CONDUIT    551.91     0  02:37      0.79    0.33    0.88
  WS02006113WS02006111 CONDUIT    561.85     0  02:37      2.47    0.67    0.46
  WS02006115WS02006116 CONDUIT    541.52     0  02:27      1.11    0.69    0.79
  WS02006116WS02004401 CONDUIT    541.79     0  02:27      1.06    0.75    0.87
  WS02006228WS02006109 CONDUIT    557.68     0  02:35      1.11    2.44    1.00
  WS02006229WS02006228 CONDUIT    556.51     0  02:35      1.11    1.84    1.00
  WS02006230WS02006229 CONDUIT    556.67     0  02:35      1.45   12.39    1.00
  WS02006231WS02006230 CONDUIT    581.80     0  02:35      1.60    8.83    1.00
  WS02006232WS02006231 CONDUIT    585.83     0  02:05      1.53    1.23    1.00
  WS02006234WS02006232 CONDUIT    584.43     0  02:05      1.52    1.18    1.00
  WS02006235WS02006234 CONDUIT    576.15     0  02:05      1.50    6.08    1.00
  WS02006238WS02006235 CONDUIT    433.11     0  03:36      1.45    0.97    1.00
  WS02006239WS02006238 CONDUIT    431.69     0  03:36      1.12    1.38    1.00
  WS02006240WS02006239 CONDUIT    433.11     0  03:36      1.24    1.36    1.00
  WS02006242WS02006240 CONDUIT    428.63     0  03:36      1.13    1.70    1.00
  WS02006243WS02006242 CONDUIT    427.55     0  03:36      1.40    0.91    1.00
  WS02006245WS02006243 CONDUIT    426.29     0  03:36      1.45    1.26    1.00
  WS02006247WS02006245 CONDUIT    425.80     0  03:36      1.43    3.38    1.00
  WS02006248WS02006247 CONDUIT    425.87     0  03:36      1.44    0.93    1.00
  WS02006249WS02006248 CONDUIT    427.62     0  03:36      1.36    2.34    1.00
  WS02006251WS02006249 CONDUIT    459.02     0  00:00      1.99    1.32    1.00
  WS02006252WS02006251 CONDUIT    407.19     0  01:53     18.00    1.49    1.00
  WS02006256WS02006235 CONDUIT    288.91     0  00:00      4.23    3.06    1.00
  WSF200WS02003060     CONDUIT    540.93     0  02:29      2.07    0.12    0.28
  YS02001580YS02001583 CONDUIT    124.73     0  01:44      0.78    0.48    1.00
  YS02001583YS02001586 CONDUIT    179.32     0  01:44      0.77    0.27    1.00
  YS02001586YS02001590 CONDUIT    318.38     0  02:15      1.26    0.56    1.00
  YS02001590YS02001593 CONDUIT    318.02     0  02:08      1.12    2.00    1.00
  YS02001593YS02001596 CONDUIT    318.04     0  02:09      1.74    0.50    1.00
  YS02001596YS02001600 CONDUIT    317.97     0  02:05      1.22    0.62    1.00
  YS02001600YS02001601 CONDUIT    317.99     0  02:15      1.12    0.55    1.00
  YS02001601YS02001602 CONDUIT    547.77     0  01:44      1.94    1.98    1.00
  YS02001602YS02001605 CONDUIT    548.07     0  01:44      1.94   11.60    1.00
  YS02001605YS02001607 CONDUIT    548.04     0  01:44      1.94    3.01    1.00
  YS02001607YS02001610 CONDUIT    540.40     0  01:44      0.69    0.51    1.00
  YS02001610YS02001613 CONDUIT    546.54     0  01:44      0.70    0.63    1.00
  YS02001613YS02001616 CONDUIT    553.21     0  01:44      0.71    0.47    1.00
  YS02001616YS02001619 CONDUIT    522.38     0  01:44      0.68    0.91    1.00
  YS02001619YS02001622 CONDUIT    942.48     0  01:44      1.23    1.39    1.00
  YS02001622YS02001625 CONDUIT    943.31     0  01:44      1.20    0.50    1.00
  YS02001625YS02001629 CONDUIT    944.86     0  01:44      1.20    0.45    1.00
  YS02001629YS02163301 CONDUIT    930.63     0  01:46      1.18    1.15    1.00
  YS02001633YS02163601 CONDUIT   1430.89     0  01:46      1.82    1.50    1.00
  YS02001641YS02001644 CONDUIT   1429.71     0  01:46      1.82    4.62    1.00
  YS02001644YS02001647 CONDUIT   1887.91     0  01:46      2.42    1.11    1.00
  YS02001647YS02001649 CONDUIT   1877.26     0  01:46      2.40    0.99    1.00
  YS02001649YS02001757 CONDUIT   2160.86     0  01:46      2.75    1.31    1.00
  YS02001652YS02001649 CONDUIT    950.89     0  01:49      1.21    0.47    1.00
  YS02001655YS02001652 CONDUIT    951.00     0  01:49      1.42    0.46    1.00
  YS02001658YS02001655 CONDUIT    950.79     0  01:49      1.97    0.40    1.00
  YS02001661YS02001658 CONDUIT    950.99     0  01:49      2.40    0.37    1.00
  YS02001664YS02001661 CONDUIT    941.52     0  01:49      2.46    0.30    0.92
  YS02001745YS02001748 CONDUIT    684.83     0  01:48      2.31    0.26    1.00
  YS02001748YS02001751 CONDUIT    628.68     0  01:49      1.81    0.32    1.00
  YS02001751YS02001754 CONDUIT    629.20     0  01:49      1.53    0.30    1.00
  YS02001754YS02001757 CONDUIT    628.95     0  01:49      0.80    0.25    1.00
  YS02001757CaochengTiaoxuchi CONDUIT   3524.36     0  01:49      4.51    1.53    1.00
  YS02001759YS02001757 CONDUIT   1479.07     0  01:48      1.88    1.05    1.00
  YS02001762YS02001759 CONDUIT    850.96     0  01:48      1.08    0.98    1.00
  YS02001765YS02001762 CONDUIT    850.41     0  01:48      1.08    0.80    1.00
  YS02001767YS02001765 CONDUIT    850.39     0  01:48      1.08    1.07    1.00
  YS02001770YS02001767 CONDUIT    850.05     0  01:48      1.08    3.37    1.00
  YS02001774YS02001770 CONDUIT    480.57     0  01:47      0.61    0.31    1.00
  YS02001779YS02001774 CONDUIT    486.66     0  01:47      0.62    0.25    1.00
  YS02001783YS02001784 CONDUIT   1164.04     0  01:49      2.32    1.60    1.00
  YS02001784YS02001785 CONDUIT   1165.05     0  01:49      2.32    2.71    1.00
  YS02001786YS02001788 CONDUIT   1165.20     0  01:49      2.48    2.25    0.89
  YS02001788YS02001790 CONDUIT   1169.39     0  01:55      2.72    0.86    0.84
  YS02001790YS02001791 CONDUIT   1293.41     0  01:50      3.43    1.41    0.71
  YS02001791YS02001793 CONDUIT   1242.03     0  01:55      6.74    0.53    0.44
  YS02001793JiankangQianchi CONDUIT   1280.64     0  01:55      2.53    0.10    0.65
  YS02001882YS02001884 CONDUIT     60.75     0  01:45      0.14    0.07    1.00
  YS02001884YS02001887 CONDUIT    104.10     0  01:45      0.13    0.14    1.00
  YS02001887YS02001890 CONDUIT    762.14     0  01:50      0.97    1.30    1.00
  YS02001890YS02001895 CONDUIT    517.56     0  01:55      0.66    0.24    1.00
  YS02001895YS02001898 CONDUIT    517.58     0  01:53      0.66    0.90    1.00
  YS02001898YS02001901 CONDUIT    517.58     0  01:55      0.66    0.33    1.00
  YS02001901YS02001904 CONDUIT    517.68     0  01:55      0.66    0.80    1.00
  YS02001904YS02001907 CONDUIT    518.38     0  01:54      0.66    0.18    1.00
  YS02001907YS02006553 CONDUIT    794.36     0  02:09      0.88    0.93    1.00
  YS02001910YS02001907 CONDUIT   1305.21     0  01:51      1.66    0.74    1.00
  YS02001915YS02001910 CONDUIT   1305.41     0  01:51      1.66    0.65    1.00
  YS02001918YS02001915 CONDUIT    518.51     0  01:46      0.66    0.29    1.00
  YS02001920YS02001918 CONDUIT    497.03     0  01:47      0.64    0.48    1.00
  YS02001923YS02001920 CONDUIT    500.08     0  01:47      0.71    0.22    1.00
  YS02001926YS02001923 CONDUIT    601.48     0  01:46      1.01    0.86    1.00
  YS02001929YS02001926 CONDUIT    499.68     0  01:47      1.18    0.24    1.00
  YS02006553YS02006556 CONDUIT    794.73     0  02:09      1.01    0.68    1.00
  YS02006556YS02006558 CONDUIT    796.35     0  02:10      1.01    0.63    1.00
  YS02006558YS02006561 CONDUIT   1165.80     0  01:46      4.12    2.58    1.00
  YS02006561YS02001783 CONDUIT   1163.98     0  01:49      2.32    0.60    1.00
  YS02163301YS02001633 CONDUIT    930.65     0  01:46      1.18    0.87    1.00
  YS02163601YS02164001 CONDUIT   1430.41     0  01:46      1.82    1.27    1.00
  YS02164001YS02001641 CONDUIT   1429.53     0  01:46      1.82    1.95    1.00
  CC-R1                PUMP       683.00     0  00:00              1.00
  CC-R2                PUMP       683.00     0  00:00              1.00
  CC-S1                PUMP       200.00     0  00:00              1.00
  CC-S2                PUMP       200.00     0  00:00              1.00
  JK-R1                PUMP      1000.00     0  00:00              1.00
  JK-R2                PUMP      1000.00     0  00:00              1.00
  JK-S                 PUMP       300.00     0  00:00              1.00
  
  
  ***************************
  Flow Classification Summary
  ***************************
  
  -------------------------------------------------------------------------------------
                      Adjusted    ---------- Fraction of Time in Flow Class ---------- 
                       /Actual         Up    Down  Sub   Sup   Up    Down  Norm  Inlet 
  Conduit               Length    Dry  Dry   Dry   Crit  Crit  Crit  Crit  Ltd   Ctrl  
  -------------------------------------------------------------------------------------
  1                       1.00   0.00  0.00  0.00  0.00  1.00  0.00  0.00  0.32  0.00
  WS02003060WS02003069    1.00   0.00  0.00  0.00  0.97  0.03  0.00  0.00  0.74  0.00
  WS02003066WSF200        1.00   0.06  0.00  0.00  0.00  0.94  0.00  0.00  0.84  0.00
  WS02003067WS02003066    1.00   0.05  0.00  0.00  0.94  0.00  0.00  0.00  0.00  0.00
  WS02003069WS02003072    1.00   0.00  0.00  0.00  0.99  0.01  0.00  0.00  0.77  0.00
  WS02003072WS02003073    1.00   0.00  0.00  0.00  0.00  0.00  0.00  1.00  0.00  0.00
  WS02004401WS02004402    1.00   0.02  0.00  0.00  0.98  0.00  0.00  0.00  0.00  0.00
  WS02004402WS02004403    1.00   0.02  0.00  0.00  0.97  0.00  0.00  0.00  0.00  0.00
  WS02004403WS02004404    1.00   0.00  0.03  0.00  0.97  0.00  0.00  0.00  0.00  0.00
  WS02004404WS02004405    1.00   0.00  0.00  0.00  1.00  0.00  0.00  0.00  0.01  0.00
  WS02004405WS02004406    1.00   0.00  0.00  0.00  1.00  0.00  0.00  0.00  0.00  0.00
  WS02004406WS02004407    1.00   0.00  0.04  0.00  0.96  0.00  0.00  0.00  0.00  0.00
  WS02004407WS02004409    1.00   0.04  0.00  0.00  0.95  0.01  0.00  0.00  0.96  0.00
  WS02004409WS02004410    1.00   0.04  0.00  0.00  0.96  0.00  0.00  0.00  0.00  0.00
  WS02004410WS02004411    1.00   0.04  0.00  0.00  0.96  0.00  0.00  0.00  0.00  0.00
  WS02004411WS02004412    1.00   0.04  0.00  0.00  0.96  0.00  0.00  0.00  0.00  0.00
  WS02004412WS02004413    1.00   0.04  0.00  0.00  0.95  0.00  0.00  0.00  0.00  0.00
  WS02004413WS02003067    1.00   0.04  0.01  0.00  0.00  0.00  0.95  0.00  0.00  0.00
  WS02006109WS02006110    1.00   0.00  0.01  0.00  0.98  0.00  0.01  0.00  0.00  0.00
  WS02006110WS02006113    1.00   0.01  0.01  0.00  0.98  0.00  0.00  0.00  0.00  0.00
  WS02006111WS02006112    1.00   0.02  0.00  0.00  0.98  0.00  0.00  0.00  0.98  0.00
  WS02006112WS02006115    1.00   0.02  0.00  0.00  0.97  0.00  0.00  0.00  0.00  0.00
  WS02006113WS02006111    1.00   0.02  0.00  0.00  0.00  0.98  0.00  0.00  0.11  0.00
  WS02006115WS02006116    1.00   0.02  0.00  0.00  0.97  0.00  0.00  0.01  0.00  0.00
  WS02006116WS02004401    1.00   0.02  0.00  0.00  0.98  0.00  0.00  0.00  0.00  0.00
  WS02006228WS02006109    1.00   0.00  0.00  0.00  1.00  0.00  0.00  0.00  0.00  0.00
  WS02006229WS02006228    1.00   0.00  0.00  0.00  0.99  0.00  0.00  0.01  0.00  0.00
  WS02006230WS02006229    1.00   0.00  0.00  0.00  0.99  0.00  0.00  0.01  0.03  0.00
  WS02006231WS02006230    1.00   0.00  0.00  0.00  0.23  0.00  0.77  0.00  0.00  0.00
  WS02006232WS02006231    1.00   0.00  0.00  0.00  0.99  0.00  0.01  0.00  0.00  0.00
  WS02006234WS02006232    1.00   0.00  0.00  0.00  1.00  0.00  0.00  0.00  0.06  0.00
  WS02006235WS02006234    1.00   0.00  0.00  0.00  0.87  0.00  0.13  0.00  0.00  0.00
  WS02006238WS02006235    1.00   0.00  0.00  0.00  1.00  0.00  0.00  0.00  0.01  0.00
  WS02006239WS02006238    1.00   0.00  0.00  0.00  1.00  0.00  0.00  0.00  0.18  0.00
  WS02006240WS02006239    1.00   0.00  0.00  0.00  0.65  0.00  0.00  0.34  0.05  0.00
  WS02006242WS02006240    1.00   0.00  0.00  0.00  0.98  0.00  0.01  0.00  0.00  0.00
  WS02006243WS02006242    1.00   0.00  0.00  0.00  0.99  0.00  0.00  0.01  0.64  0.00
  WS02006245WS02006243    1.00   0.00  0.00  0.00  0.77  0.00  0.00  0.23  0.00  0.00
  WS02006247WS02006245    1.00   0.00  0.00  0.00  0.96  0.00  0.00  0.04  0.00  0.00
  WS02006248WS02006247    1.00   0.00  0.00  0.00  0.98  0.00  0.00  0.02  0.54  0.00
  WS02006249WS02006248    1.00   0.00  0.00  0.00  0.38  0.00  0.62  0.00  0.00  0.00
  WS02006251WS02006249    1.00   0.00  0.00  0.00  0.99  0.01  0.00  0.00  0.63  0.00
  WS02006252WS02006251    1.00   0.00  0.52  0.00  0.10  0.00  0.38  0.00  0.00  0.00
  WS02006256WS02006235    1.00   0.00  0.00  0.00  0.98  0.02  0.00  0.00  0.01  0.00
  WSF200WS02003060        1.00   0.00  0.06  0.00  0.46  0.48  0.00  0.00  0.66  0.00
  YS02001580YS02001583    1.00   0.21  0.59  0.00  0.20  0.00  0.00  0.00  0.68  0.00
  YS02001583YS02001586    1.00   0.42  0.32  0.00  0.26  0.00  0.00  0.00  0.68  0.00
  YS02001586YS02001590    1.00   0.13  0.00  0.00  0.42  0.04  0.00  0.41  0.35  0.00
  YS02001590YS02001593    1.00   0.13  0.01  0.00  0.12  0.00  0.74  0.00  0.00  0.00
  YS02001593YS02001596    1.00   0.13  0.00  0.00  0.14  0.01  0.00  0.72  0.02  0.00
  YS02001596YS02001600    1.00   0.14  0.00  0.00  0.20  0.01  0.00  0.65  0.05  0.00
  YS02001600YS02001601    1.00   0.13  0.01  0.00  0.86  0.00  0.00  0.00  0.60  0.00
  YS02001601YS02001602    1.00   0.13  0.01  0.00  0.87  0.00  0.00  0.00  0.00  0.00
  YS02001602YS02001605    1.00   0.13  0.00  0.00  0.86  0.00  0.00  0.00  0.00  0.00
  YS02001605YS02001607    1.00   0.14  0.00  0.00  0.86  0.00  0.00  0.00  0.00  0.00
  YS02001607YS02001610    1.00   0.13  0.01  0.00  0.86  0.00  0.00  0.00  0.01  0.00
  YS02001610YS02001613    1.00   0.13  0.00  0.00  0.87  0.00  0.00  0.00  0.00  0.00
  YS02001613YS02001616    1.00   0.13  0.00  0.00  0.87  0.00  0.00  0.00  0.00  0.00
  YS02001616YS02001619    1.00   0.13  0.00  0.00  0.87  0.00  0.00  0.00  0.00  0.00
  YS02001619YS02001622    1.00   0.13  0.00  0.00  0.87  0.00  0.00  0.00  0.29  0.00
  YS02001622YS02001625    1.00   0.13  0.00  0.00  0.87  0.00  0.00  0.00  0.04  0.00
  YS02001625YS02001629    1.00   0.13  0.05  0.00  0.17  0.00  0.66  0.00  0.00  0.00
  YS02001629YS02163301    1.00   0.15  0.01  0.00  0.84  0.00  0.00  0.00  0.00  0.00
  YS02001633YS02163601    1.00   0.00  0.01  0.00  0.99  0.00  0.00  0.00  0.15  0.00
  YS02001641YS02001644    1.00   0.00  0.01  0.00  0.99  0.00  0.00  0.00  0.00  0.00
  YS02001644YS02001647    1.00   0.00  0.17  0.00  0.83  0.00  0.00  0.00  0.00  0.00
  YS02001647YS02001649    1.00   0.00  0.17  0.00  0.57  0.26  0.00  0.00  0.57  0.00
  YS02001649YS02001757    1.00   0.00  0.00  0.00  0.71  0.29  0.00  0.00  0.47  0.00
  YS02001652YS02001649    1.00   0.00  0.00  0.00  0.97  0.03  0.00  0.00  0.74  0.00
  YS02001655YS02001652    1.00   0.00  0.00  0.00  0.19  0.01  0.00  0.80  0.05  0.00
  YS02001658YS02001655    1.00   0.00  0.14  0.00  0.67  0.19  0.00  0.00  0.67  0.00
  YS02001661YS02001658    1.00   0.14  0.00  0.00  0.51  0.35  0.00  0.00  0.70  0.00
  YS02001664YS02001661    1.00   0.13  0.00  0.00  0.77  0.10  0.00  0.00  0.86  0.00
  YS02001745YS02001748    1.00   0.00  0.00  0.00  0.11  0.01  0.00  0.89  0.05  0.00
  YS02001748YS02001751    1.00   0.00  0.00  0.00  0.83  0.17  0.00  0.00  0.77  0.00
  YS02001751YS02001754    1.00   0.00  0.00  0.00  0.18  0.00  0.00  0.82  0.04  0.00
  YS02001754YS02001757    1.00   0.00  0.00  0.00  1.00  0.00  0.00  0.00  0.81  0.00
  YS02001757CaochengTiaoxuchi    1.00   0.00  0.00  0.00  0.97  0.03  0.00  0.00  0.79  0.00
  YS02001759YS02001757    1.00   0.00  0.00  0.00  1.00  0.00  0.00  0.00  0.61  0.00
  YS02001762YS02001759    1.00   0.00  0.00  0.00  1.00  0.00  0.00  0.00  0.04  0.00
  YS02001765YS02001762    1.00   0.00  0.00  0.00  1.00  0.00  0.00  0.00  0.73  0.00
  YS02001767YS02001765    1.00   0.00  0.00  0.00  1.00  0.00  0.00  0.00  0.00  0.00
  YS02001770YS02001767    1.00   0.00  0.00  0.00  1.00  0.00  0.00  0.00  0.00  0.00
  YS02001774YS02001770    1.00   0.00  0.13  0.00  0.70  0.00  0.17  0.00  0.03  0.00
  YS02001779YS02001774    1.00   0.00  0.00  0.00  1.00  0.00  0.00  0.00  0.77  0.00
  YS02001783YS02001784    1.00   0.00  0.18  0.00  0.82  0.00  0.00  0.00  0.56  0.00
  YS02001784YS02001785    1.00   0.00  0.00  0.00  1.00  0.00  0.00  0.00  0.16  0.00
  YS02001786YS02001788    1.00   0.00  0.00  0.00  0.79  0.21  0.00  0.00  0.00  0.00
  YS02001788YS02001790    1.00   0.00  0.00  0.00  0.21  0.79  0.00  0.00  0.80  0.00
  YS02001790YS02001791    1.00   0.00  0.00  0.00  0.01  0.99  0.00  0.00  0.16  0.00
  YS02001791YS02001793    1.00   0.00  0.00  0.00  0.00  1.00  0.00  0.00  0.01  0.00
  YS02001793JiankangQianchi    1.00   0.00  0.00  0.00  0.97  0.03  0.00  0.00  0.97  0.00
  YS02001882YS02001884    1.00   0.15  0.01  0.00  0.84  0.00  0.00  0.00  0.00  0.00
  YS02001884YS02001887    1.00   0.06  0.05  0.00  0.89  0.00  0.00  0.00  0.00  0.00
  YS02001887YS02001890    1.00   0.00  0.00  0.00  0.97  0.00  0.03  0.00  0.00  0.00
  YS02001890YS02001895    1.00   0.00  0.16  0.00  0.84  0.00  0.00  0.00  0.00  0.00
  YS02001895YS02001898    1.00   0.16  0.00  0.00  0.82  0.00  0.02  0.00  0.00  0.00
  YS02001898YS02001901    1.00   0.16  0.00  0.00  0.83  0.00  0.00  0.00  0.01  0.00
  YS02001901YS02001904    1.00   0.16  0.00  0.00  0.84  0.00  0.00  0.00  0.00  0.00
  YS02001904YS02001907    1.00   0.00  0.16  0.00  0.84  0.00  0.00  0.00  0.00  0.00
  YS02001907YS02006553    1.00   0.00  0.02  0.00  0.98  0.00  0.00  0.00  0.00  0.00
  YS02001910YS02001907    1.00   0.00  0.00  0.00  0.97  0.00  0.00  0.03  0.12  0.00
  YS02001915YS02001910    1.00   0.00  0.00  0.00  0.97  0.03  0.00  0.00  0.15  0.00
  YS02001918YS02001915    1.00   0.00  0.01  0.00  0.98  0.02  0.00  0.00  0.75  0.00
  YS02001920YS02001918    1.00   0.00  0.01  0.00  0.99  0.00  0.00  0.00  0.00  0.00
  YS02001923YS02001920    1.00   0.00  0.00  0.00  1.00  0.00  0.00  0.00  0.92  0.00
  YS02001926YS02001923    1.00   0.00  0.07  0.00  0.06  0.00  0.86  0.00  0.00  0.00
  YS02001929YS02001926    1.00   0.00  0.13  0.00  0.87  0.00  0.00  0.00  0.82  0.00
  YS02006553YS02006556    1.00   0.01  0.00  0.00  0.99  0.00  0.00  0.00  0.03  0.00
  YS02006556YS02006558    1.00   0.00  0.00  0.00  1.00  0.00  0.00  0.00  0.00  0.00
  YS02006558YS02006561    1.00   0.17  0.00  0.00  0.06  0.77  0.00  0.00  0.19  0.00
  YS02006561YS02001783    1.00   0.18  0.00  0.00  0.09  0.73  0.00  0.00  0.69  0.00
  YS02163301YS02001633    1.00   0.00  0.15  0.00  0.85  0.00  0.00  0.00  0.00  0.00
  YS02163601YS02164001    1.00   0.00  0.08  0.00  0.92  0.00  0.00  0.00  0.00  0.00
  YS02164001YS02001641    1.00   0.01  0.07  0.00  0.92  0.00  0.00  0.00  0.05  0.00
  
  
  *************************
  Conduit Surcharge Summary
  *************************
  
  ----------------------------------------------------------------------------
                                                           Hours        Hours 
                         --------- Hours Full --------   Above Full   Capacity
  Conduit                Both Ends  Upstream  Dnstream   Normal Flow   Limited
  ----------------------------------------------------------------------------
  WS02003072WS02003073        0.01      0.01      0.01      1.01         0.01
  WS02004403WS02004404        0.01      0.01      0.02      0.01         0.01
  WS02004404WS02004405        0.01      0.02      0.01      2.61         0.01
  WS02004405WS02004406        0.01      0.01      0.01      0.56         0.01
  WS02006109WS02006110        0.67      0.67      1.65      0.73         0.01
  WS02006110WS02006113        0.01      0.01      1.62      0.01         0.01
  WS02006111WS02006112        0.01      0.01      2.02      0.01         0.01
  WS02006112WS02006115        0.01      0.01      0.73      0.01         0.01
  WS02006228WS02006109        1.60      1.66      1.60      2.27         1.60
  WS02006229WS02006228        1.60      1.61      1.60      1.88         1.59
  WS02006230WS02006229        1.77      1.87      1.77      3.02         1.77
  WS02006231WS02006230        0.68      0.68      0.78      2.71         0.01
  WS02006232WS02006231        0.75      0.75      1.66      0.80         0.01
  WS02006234WS02006232        1.55      1.55      1.66      0.78         0.78
  WS02006235WS02006234        0.98      0.98      1.56      2.65         0.01
  WS02006238WS02006235        1.58      1.58      1.65      0.01         0.01
  WS02006239WS02006238        1.60      1.63      1.60      1.68         1.44
  WS02006240WS02006239        1.58      1.60      1.58      1.65         1.33
  WS02006242WS02006240        1.59      1.59      1.68      1.83         0.01
  WS02006243WS02006242        1.60      1.60      1.66      0.01         0.03
  WS02006245WS02006243        1.57      1.58      1.59      0.93         0.97
  WS02006247WS02006245        1.58      1.60      1.58      2.38         1.57
  WS02006248WS02006247        1.57      1.57      1.59      0.01         0.03
  WS02006249WS02006248        1.55      1.56      1.57      2.35         0.01
  WS02006251WS02006249        1.57      1.57      1.57      1.71         1.52
  WS02006252WS02006251        1.76      1.76      1.79      1.76         0.01
  WS02006256WS02006235        2.65      2.69      6.74      1.36         0.01
  YS02001580YS02001583        0.63      0.63      0.69      0.01         0.01
  YS02001583YS02001586        0.64      0.64      0.79      0.01         0.01
  YS02001586YS02001590        0.79      0.79      0.86      0.01         0.01
  YS02001590YS02001593        0.87      0.87      0.88      0.92         0.01
  YS02001593YS02001596        0.88      0.88      0.98      0.01         0.01
  YS02001596YS02001600        1.02      1.02      1.13      0.01         0.01
  YS02001600YS02001601        1.20      1.20      1.51      0.01         0.01
  YS02001601YS02001602        1.40      1.40      1.54      1.14         0.01
  YS02001602YS02001605        1.34      1.34      1.40      2.24         0.01
  YS02001605YS02001607        1.29      1.34      1.29      1.48         1.29
  YS02001607YS02001610        0.85      0.85      0.88      0.01         0.01
  YS02001610YS02001613        0.84      0.84      0.88      0.01         0.01
  YS02001613YS02001616        0.80      0.80      0.84      0.01         0.01
  YS02001616YS02001619        0.78      0.78      0.80      0.01         0.02
  YS02001619YS02001622        0.78      0.78      0.78      0.87         0.75
  YS02001622YS02001625        0.78      0.78      0.97      0.01         0.01
  YS02001625YS02001629        0.73      0.73      0.97      0.01         0.01
  YS02001629YS02163301        0.97      0.97      0.98      0.08         0.15
  YS02001633YS02163601        0.99      0.99      1.02      0.36         0.35
  YS02001641YS02001644        0.92      0.94      0.92      1.57         0.90
  YS02001644YS02001647        0.71      0.71      0.92      0.04         0.01
  YS02001647YS02001649        0.71      0.71      0.84      0.01         0.01
  YS02001649YS02001757        0.83      0.84      0.91      0.07         0.05
  YS02001652YS02001649        0.65      0.65      0.84      0.01         0.01
  YS02001655YS02001652        0.43      0.43      0.62      0.01         0.01
  YS02001658YS02001655        0.21      0.21      0.43      0.01         0.01
  YS02001661YS02001658        0.01      0.01      0.21      0.01         0.01
  YS02001664YS02001661        0.01      0.01      0.03      0.01         0.01
  YS02001745YS02001748        0.01      0.01      0.12      0.01         0.01
  YS02001748YS02001751        0.18      0.18      0.29      0.01         0.01
  YS02001751YS02001754        0.29      0.29      0.52      0.01         0.01
  YS02001754YS02001757        0.56      0.56      0.91      0.01         0.01
  YS02001757CaochengTiaoxuchi        0.85      0.91      1.46      0.38         0.30
  YS02001759YS02001757        0.80      0.80      0.91      0.01         0.03
  YS02001762YS02001759        0.77      0.77      0.80      0.01         0.02
  YS02001765YS02001762        0.72      0.72      0.77      0.01         0.01
  YS02001767YS02001765        0.68      0.68      0.72      0.01         0.03
  YS02001770YS02001767        0.68      0.68      0.68      0.56         0.48
  YS02001774YS02001770        0.65      0.65      0.75      0.01         0.01
  YS02001779YS02001774        0.51      0.51      0.75      0.01         0.01
  YS02001783YS02001784        0.54      0.56      0.54      0.71         0.54
  YS02001784YS02001785        0.44      0.54      0.44      0.95         0.44
  YS02001786YS02001788        0.01      0.44      0.01      0.81         0.01
  YS02001790YS02001791        0.01      0.01      0.01      0.53         0.01
  YS02001793JiankangQianchi        0.01      0.01      6.24      0.01         0.01
  YS02001882YS02001884        0.51      0.51      0.52      0.01         0.01
  YS02001884YS02001887        0.54      0.54      0.55      0.01         0.01
  YS02001887YS02001890        0.57      0.57      0.58      0.11         0.01
  YS02001890YS02001895        0.50      0.50      0.60      0.01         0.01
  YS02001895YS02001898        0.49      0.49      0.50      0.01         0.01
  YS02001898YS02001901        0.50      0.50      0.54      0.01         0.01
  YS02001901YS02001904        0.53      0.53      0.54      0.01         0.01
  YS02001904YS02001907        0.53      0.53      0.78      0.01         0.01
  YS02001907YS02006553        0.96      0.96      1.03      0.01         0.01
  YS02001910YS02001907        0.60      0.60      0.76      0.01         0.01
  YS02001915YS02001910        0.51      0.51      0.60      0.01         0.01
  YS02001918YS02001915        0.42      0.42      0.51      0.01         0.01
  YS02001920YS02001918        0.42      0.42      0.43      0.01         0.01
  YS02001923YS02001920        0.37      0.37      0.43      0.01         0.01
  YS02001926YS02001923        0.06      0.06      0.11      0.01         0.01
  YS02001929YS02001926        0.01      0.01      0.11      0.01         0.01
  YS02006553YS02006556        0.68      0.68      0.78      0.01         0.01
  YS02006556YS02006558        0.73      0.73      0.80      0.01         0.01
  YS02006558YS02006561        0.46      0.67      0.46      0.90         0.46
  YS02006561YS02001783        0.39      0.39      0.56      0.01         0.01
  YS02163301YS02001633        0.98      0.98      1.01      0.01         0.01
  YS02163601YS02164001        0.94      0.94      1.02      0.05         0.01
  YS02164001YS02001641        0.94      0.94      0.94      0.76         0.70
  
  
  ***************
  Pumping Summary
  ***************
  
  ---------------------------------------------------------------------------------------------------------
                                                  Min       Avg       Max     Total     Power    % Time Off
                        Percent   Number of      Flow      Flow      Flow    Volume     Usage    Pump Curve
  Pump                 Utilized   Start-Ups       LPS       LPS       LPS  10^6 ltr     Kw-hr    Low   High
  ---------------------------------------------------------------------------------------------------------
  CC-R1                   24.06          29      0.00    683.00    683.00     4.732     86.75    0.0   26.4
  CC-R2                   19.91          19      0.00    683.00    683.00     3.915     72.18    0.0   28.2
  CC-S1                   26.64          19      0.00    200.00    200.00     1.534      8.73    0.0    0.0
  CC-S2                   26.56          12      0.00    200.00    200.00     1.530      8.84    0.0    0.0
  JK-R1                    4.98          15      0.00   1000.00   1000.00     1.433     14.01    0.0    0.0
  JK-R2                    4.94          15      0.00   1000.00   1000.00     1.424     12.10    0.0    0.0
  JK-S                    16.36          39      0.00    300.00    300.00     1.414     25.31    0.0    0.0
  

  Analysis begun on:  Mon Dec 30 10:14:03 2024
  Analysis ended on:  Mon Dec 30 10:14:05 2024
  Total elapsed time: 00:00:02