
  EPA STORM WATER MANAGEMENT MODEL - VERSION 5.2 (Build 5.2.4)
  PYSWMM TOOLKIT API - VERSION v1.0 (2023-11-27)
  ------------------------------------------------------------

  WARNING 04: minimum elevation drop used for Conduit WS02004404WS02004405
  WARNING 03: negative offset ignored for Link YS02001904YS02001907
  
  ****************
  Analysis Options
  ****************
  Flow Units ............... LPS
  Process Models:
    Rainfall/Runoff ........ YES
    RDII ................... NO
    Snowmelt ............... NO
    Groundwater ............ NO
    Flow Routing ........... YES
    Ponding Allowed ........ NO
    Water Quality .......... NO
  Infiltration Method ...... HORTON
  Flow Routing Method ...... DYNWAVE
  Surcharge Method ......... EXTRAN
  Starting Date ............ 08/28/2015 08:00:00
  Ending Date .............. 08/28/2015 16:00:00
  Antecedent Dry Days ...... 8.0
  Report Time Step ......... 00:01:00
  Wet Time Step ............ 00:01:00
  Dry Time Step ............ 00:01:00
  Routing Time Step ........ 30.00 sec
  Variable Time Step ....... YES
  Maximum Trials ........... 8
  Number of Threads ........ 4
  Head Tolerance ........... 0.001500 m
  
  
  **************************        Volume         Depth
  Runoff Quantity Continuity     hectare-m            mm
  **************************     ---------       -------
  Total Precipitation ......         2.689        81.080
  Evaporation Loss .........         0.000         0.000
  Infiltration Loss ........         0.100         3.015
  Surface Runoff ...........         2.557        77.092
  Final Storage ............         0.033         0.994
  Continuity Error (%) .....        -0.028
  
  
  **************************        Volume        Volume
  Flow Routing Continuity        hectare-m      10^6 ltr
  **************************     ---------     ---------
  Dry Weather Inflow .......         0.025         0.251
  Wet Weather Inflow .......         2.557        25.567
  Groundwater Inflow .......         0.000         0.000
  RDII Inflow ..............         0.000         0.000
  External Inflow ..........         0.083         0.834
  External Outflow .........         1.702        17.024
  Flooding Loss ............         1.035        10.350
  Evaporation Loss .........         0.000         0.000
  Exfiltration Loss ........         0.000         0.000
  Initial Stored Volume ....         0.243         2.431
  Final Stored Volume ......         0.182         1.817
  Continuity Error (%) .....        -0.376
  
  
  *************************
  Highest Continuity Errors
  *************************
  Node YS02001583 (-6.30%)
  Node YS02001884 (4.98%)
  Node WS02006256 (-2.39%)
  
  
  ***************************
  Time-Step Critical Elements
  ***************************
  Link WS02006238WS02006235 (28.60%)
  Link WS02004404WS02004405 (24.02%)
  Link WS02006252WS02006251 (17.30%)
  Link YS02001791YS02001793 (10.08%)
  Link WS02003066WSF200 (3.79%)
  
  
  ********************************
  Highest Flow Instability Indexes
  ********************************
  Link WS02006113WS02006111 (36)
  Link WS02006256WS02006235 (24)
  Link WS02006238WS02006235 (24)
  Link WS02004404WS02004405 (21)
  Link WS02006252WS02006251 (21)
  
  
  *********************************
  Most Frequent Nonconverging Nodes
  *********************************
  Node CC-1 (16.93%)
  Node CC-2 (16.93%)
  Node JK-1 (16.93%)
  Node JK-2 (16.93%)
  Node WSC (16.93%)
  
  
  *************************
  Routing Time Step Summary
  *************************
  Minimum Time Step           :     0.00 sec
  Average Time Step           :     2.73 sec
  Maximum Time Step           :     6.43 sec
  % of Time in Steady State   :     0.00
  Average Iterations per Step :     3.63
  % of Steps Not Converging   :    16.93
  Time Step Frequencies       :
     30.000 - 13.228 sec      :     0.00 %
     13.228 -  5.833 sec      :    14.09 %
      5.833 -  2.572 sec      :    24.72 %
      2.572 -  1.134 sec      :    35.71 %
      1.134 -  0.500 sec      :    25.48 %
  
  
  ***************************
  Subcatchment Runoff Summary
  ***************************
  
  ------------------------------------------------------------------------------------------------------------------------------
                            Total      Total      Total      Total     Imperv       Perv      Total       Total     Peak  Runoff
                           Precip      Runon       Evap      Infil     Runoff     Runoff     Runoff      Runoff   Runoff   Coeff
  Subcatchment                 mm         mm         mm         mm         mm         mm         mm    10^6 ltr      LPS
  ------------------------------------------------------------------------------------------------------------------------------
  sub60                     81.08       0.00       0.00       1.82      70.16       7.91      78.07        1.03   747.45   0.963
  sub61                     81.08       0.00       0.00       2.63      66.17      11.16      77.33        1.42  1036.27   0.954
  sub62                     81.08       0.00       0.00       1.21      73.32       5.28      78.59        2.15  1445.22   0.969
  sub63                     81.08       0.00       0.00       4.84      56.60      18.68      75.28        1.71  1152.95   0.929
  sub64                     81.08       0.00       0.00       2.45      67.72       9.72      77.44        1.86  1179.77   0.955
  sub65                     81.08       0.00       0.00       2.12      69.29       8.42      77.72        2.14  1316.60   0.959
  sub66                     81.08       0.00       0.00       5.99      56.50      17.53      74.02        3.45  1710.42   0.913
  sub67                     81.08       0.00       0.00       1.17      73.36       5.32      78.68        1.46  1119.82   0.970
  sub68                     81.08       0.00       0.00       2.18      68.55       9.17      77.73        2.14  1489.04   0.959
  sub69                     81.08       0.00       0.00       1.94      68.81      10.23      79.04        2.93  1752.10   0.975
  sub70                     81.08       0.00       0.00       6.48      53.35      21.09      74.44        2.15   958.43   0.918
  sub71                     81.08       0.00       0.00       1.24      73.27       5.25      78.52        2.05  1275.74   0.968
  sub72                     81.08       0.00       0.00       1.10      74.01       4.57      78.58        1.08   613.87   0.969
  
  
  ******************
  Node Depth Summary
  ******************
  
  ---------------------------------------------------------------------------------
                                 Average  Maximum  Maximum  Time of Max    Reported
                                   Depth    Depth      HGL   Occurrence   Max Depth
  Node                 Type       Meters   Meters   Meters  days hr:min      Meters
  ---------------------------------------------------------------------------------
  WS02003060           JUNCTION     0.22     0.38     5.32     0  02:29        0.38
  WS02003066           JUNCTION     0.18     0.30     5.85     0  02:28        0.30
  WS02003067           JUNCTION     0.48     0.70     6.02     0  02:28        0.70
  WS02003069           JUNCTION     0.25     0.43     5.02     0  02:29        0.43
  WS02003072           JUNCTION     0.31     0.50     4.87     0  02:30        0.50
  WS02003073           JUNCTION     0.17     0.30     4.36     0  02:27        0.30
  WS02004401           JUNCTION     0.57     0.88     6.88     0  02:25        0.88
  WS02004402           JUNCTION     0.60     0.90     6.86     0  02:22        0.90
  WS02004403           JUNCTION     0.62     0.92     6.85     0  02:23        0.92
  WS02004404           JUNCTION     0.69     1.06     6.91     0  02:27        1.04
  WS02004405           JUNCTION     0.68     0.97     6.82     0  02:31        0.97
  WS02004406           JUNCTION     0.69     0.96     6.79     0  02:18        0.96
  WS02004407           JUNCTION     0.16     0.30     6.61     0  02:18        0.30
  WS02004409           JUNCTION     0.37     0.67     6.44     0  02:19        0.67
  WS02004410           JUNCTION     0.39     0.68     6.40     0  02:27        0.68
  WS02004411           JUNCTION     0.41     0.69     6.37     0  02:20        0.69
  WS02004412           JUNCTION     0.43     0.70     6.34     0  02:20        0.70
  WS02004413           JUNCTION     0.59     0.86     6.33     0  02:28        0.86
  WS02006109           JUNCTION     0.63     1.23     7.84     0  02:35        1.12
  WS02006110           JUNCTION     0.63     1.11     7.69     0  01:58        1.04
  WS02006111           JUNCTION     0.17     0.29     6.99     0  03:16        0.29
  WS02006112           JUNCTION     0.72     1.08     6.97     0  02:21        1.08
  WS02006113           JUNCTION     0.26     0.46     7.35     0  03:13        0.46
  WS02006115           JUNCTION     0.46     0.78     6.92     0  02:29        0.78
  WS02006116           JUNCTION     0.54     0.86     6.90     0  02:17        0.86
  WS02006228           JUNCTION     0.63     1.46     8.11     0  02:35        1.14
  WS02006229           JUNCTION     0.60     1.53     8.23     0  02:35        1.21
  WS02006230           JUNCTION     0.61     1.81     8.56     0  02:35        1.23
  WS02006231           JUNCTION     0.42     1.47     8.60     0  02:35        0.98
  WS02006232           JUNCTION     0.56     1.55     8.59     0  02:35        1.18
  WS02006234           JUNCTION     0.49     1.68     8.84     0  03:20        1.21
  WS02006235           JUNCTION     0.53     1.73     8.89     0  03:20        1.32
  WS02006238           JUNCTION     0.56     1.76     8.90     0  03:20        1.36
  WS02006239           JUNCTION     0.52     1.70     8.91     0  03:20        1.36
  WS02006240           JUNCTION     0.49     1.61     8.90     0  03:20        1.32
  WS02006242           JUNCTION     0.56     1.55     8.82     0  02:35        1.38
  WS02006243           JUNCTION     0.47     1.41     8.83     0  02:35        1.25
  WS02006245           JUNCTION     0.47     1.45     8.94     0  02:06        1.45
  WS02006247           JUNCTION     0.49     1.27     8.77     0  02:35        1.23
  WS02006248           JUNCTION     0.45     1.10     8.69     0  02:00        1.10
  WS02006249           JUNCTION     0.48     1.09     8.69     0  01:52        1.09
  WS02006251           JUNCTION     0.47     1.75     9.42     0  02:35        1.13
  WS02006252           JUNCTION     0.33     1.50     9.74     0  00:00        0.92
  WS02006256           JUNCTION     1.05     2.35     9.28     0  00:00        2.35
  WSF200               JUNCTION     0.16     0.29     5.53     0  02:28        0.29
  YS02001580           JUNCTION     0.13     1.05     9.59     0  01:43        1.05
  YS02001583           JUNCTION     0.16     1.11     9.61     0  01:43        0.82
  YS02001586           JUNCTION     0.26     1.13     9.30     0  01:43        1.13
  YS02001590           JUNCTION     0.37     1.40     9.26     0  01:41        1.40
  YS02001593           JUNCTION     0.30     1.46     9.32     0  01:41        1.46
  YS02001596           JUNCTION     0.40     1.77     9.19     0  02:06        1.77
  YS02001600           JUNCTION     0.47     1.87     9.00     0  01:43        1.87
  YS02001601           JUNCTION     0.66     2.06     8.90     0  01:41        2.06
  YS02001602           JUNCTION     0.57     1.87     8.77     0  01:42        1.87
  YS02001605           JUNCTION     0.53     1.78     8.68     0  02:06        1.77
  YS02001607           JUNCTION     0.52     1.68     8.53     0  01:51        1.68
  YS02001610           JUNCTION     0.56     1.68     8.48     0  01:43        1.68
  YS02001613           JUNCTION     0.52     1.70     8.54     0  01:51        1.70
  YS02001616           JUNCTION     0.45     1.61     8.52     0  01:46        1.61
  YS02001619           JUNCTION     0.43     1.61     8.54     0  01:46        1.61
  YS02001622           JUNCTION     0.42     1.62     8.52     0  01:42        1.62
  YS02001625           JUNCTION     0.67     1.78     8.38     0  01:42        1.78
  YS02001629           JUNCTION     0.55     1.85     8.40     0  01:42        1.85
  YS02001633           JUNCTION     0.63     2.08     8.53     0  01:44        2.08
  YS02001641           JUNCTION     0.61     2.10     8.54     0  01:51        2.10
  YS02001644           JUNCTION     0.60     1.92     8.35     0  01:46        1.92
  YS02001647           JUNCTION     0.40     1.90     8.51     0  01:51        1.90
  YS02001649           JUNCTION     0.45     2.05     8.44     0  01:46        2.05
  YS02001652           JUNCTION     0.33     2.01     8.61     0  01:46        1.86
  YS02001655           JUNCTION     0.26     1.98     8.83     0  01:46        1.68
  YS02001658           JUNCTION     0.19     2.00     9.15     0  01:46        1.46
  YS02001661           JUNCTION     0.19     1.62     9.02     0  01:46        1.27
  YS02001664           JUNCTION     0.07     0.99     8.92     0  01:47        0.77
  YS02001745           JUNCTION     0.10     1.76     9.28     0  01:46        1.19
  YS02001748           JUNCTION     0.18     2.11     9.19     0  01:46        1.54
  YS02001751           JUNCTION     0.23     2.15     9.03     0  01:46        1.89
  YS02001754           JUNCTION     0.30     2.19     8.80     0  01:46        2.03
  YS02001757           JUNCTION     0.47     2.21     8.47     0  01:46        2.14
  YS02001759           JUNCTION     0.41     2.21     8.57     0  01:46        2.17
  YS02001762           JUNCTION     0.40     2.15     8.55     0  01:46        2.15
  YS02001765           JUNCTION     0.38     2.10     8.55     0  01:51        2.10
  YS02001767           JUNCTION     0.38     2.02     8.51     0  01:46        2.00
  YS02001770           JUNCTION     0.39     1.95     8.44     0  01:46        1.95
  YS02001774           JUNCTION     0.45     2.05     8.47     0  01:51        2.05
  YS02001779           JUNCTION     0.28     1.68     8.37     0  01:45        1.68
  YS02001783           JUNCTION     0.29     1.60     7.74     0  01:45        1.58
  YS02001784           JUNCTION     0.30     1.37     7.44     0  01:51        1.37
  YS02001786           JUNCTION     0.25     0.99     7.02     0  01:45        0.88
  YS02001788           JUNCTION     0.18     0.63     6.60     0  01:48        0.63
  YS02001790           JUNCTION     0.21     0.73     6.38     0  01:51        0.72
  YS02001791           JUNCTION     0.13     0.44     5.91     0  01:48        0.44
  YS02001793           JUNCTION     0.07     0.30     5.14     0  02:00        0.27
  YS02001882           JUNCTION     0.36     1.83     8.55     0  01:51        1.83
  YS02001884           JUNCTION     0.45     1.93     8.55     0  02:06        1.93
  YS02001887           JUNCTION     0.52     1.92     8.46     0  01:51        1.89
  YS02001890           JUNCTION     0.55     1.81     8.32     0  01:44        1.81
  YS02001895           JUNCTION     0.33     1.66     8.41     0  02:06        1.66
  YS02001898           JUNCTION     0.34     1.77     8.51     0  02:06        1.77
  YS02001901           JUNCTION     0.45     1.87     8.48     0  02:06        1.87
  YS02001904           JUNCTION     0.43     1.85     8.48     0  02:06        1.85
  YS02001907           JUNCTION     0.73     1.96     8.25     0  01:44        1.96
  YS02001910           JUNCTION     0.55     2.01     8.51     0  01:51        2.01
  YS02001915           JUNCTION     0.37     2.00     8.72     0  01:50        2.00
  YS02001918           JUNCTION     0.22     1.81     8.88     0  01:45        1.81
  YS02001920           JUNCTION     0.30     2.14     9.15     0  01:45        2.14
  YS02001923           JUNCTION     0.17     2.03     9.29     0  01:45        1.54
  YS02001926           JUNCTION     0.20     1.90     9.35     0  01:45        1.90
  YS02001929           JUNCTION     0.12     1.78     9.47     0  01:45        1.15
  YS02006553           JUNCTION     0.73     2.07     8.35     0  01:45        2.01
  YS02006556           JUNCTION     0.71     2.17     8.48     0  01:45        2.02
  YS02006558           JUNCTION     0.75     2.23     8.50     0  01:45        2.09
  YS02006561           JUNCTION     0.18     1.24     7.90     0  01:45        0.92
  YS02163301           JUNCTION     0.58     2.03     8.55     0  01:51        2.03
  YS02163601           JUNCTION     0.66     2.08     8.48     0  01:44        2.08
  YS02164001           JUNCTION     0.60     2.03     8.49     0  02:22        2.03
  CC-1                 OUTFALL      0.00     0.00     0.00     0  00:00        0.00
  CC-2                 OUTFALL      0.00     0.00     0.00     0  00:00        0.00
  JK-1                 OUTFALL      0.00     0.00     0.00     0  00:00        0.00
  JK-2                 OUTFALL      0.00     0.00     0.00     0  00:00        0.00
  WSC                  OUTFALL      0.17     0.30     0.97     0  02:28        0.30
  CC-storage           STORAGE      0.86     1.74     7.24     0  02:25        1.74
  JK-storage           STORAGE      1.51     4.23     5.03     0  02:00        4.17
  
  
  *******************
  Node Inflow Summary
  *******************
  
  -------------------------------------------------------------------------------------------------
                                  Maximum  Maximum                  Lateral       Total        Flow
                                  Lateral    Total  Time of Max      Inflow      Inflow     Balance
                                   Inflow   Inflow   Occurrence      Volume      Volume       Error
  Node                 Type           LPS      LPS  days hr:min    10^6 ltr    10^6 ltr     Percent
  -------------------------------------------------------------------------------------------------
  WS02003060           JUNCTION     16.53   557.01     0  02:29       0.476        4.69       0.049
  WS02003066           JUNCTION      0.00   540.25     0  02:28           0        4.21       0.033
  WS02003067           JUNCTION      0.00   540.12     0  02:28           0        4.22       0.099
  WS02003069           JUNCTION      0.32   557.33     0  02:29     0.00922        4.69       0.085
  WS02003072           JUNCTION      0.00   556.92     0  02:30           0        4.69       0.148
  WS02003073           JUNCTION      1.82   558.45     0  02:30      0.0524        4.73       0.117
  WS02004401           JUNCTION      0.00   541.46     0  02:17           0        4.31       0.243
  WS02004402           JUNCTION      0.00   542.21     0  02:29           0         4.3       0.246
  WS02004403           JUNCTION      0.00   543.39     0  02:22           0        4.29       0.237
  WS02004404           JUNCTION      0.16   566.07     0  02:27     0.00467        4.29       0.114
  WS02004405           JUNCTION      0.04   615.43     0  02:22      0.0011        4.28       0.244
  WS02004406           JUNCTION      0.00   548.03     0  02:17           0        4.27       0.494
  WS02004407           JUNCTION      0.00   542.04     0  02:18           0        4.25       0.029
  WS02004409           JUNCTION      0.00   541.13     0  02:18           0        4.25       0.065
  WS02004410           JUNCTION      0.00   540.72     0  02:19           0        4.25       0.106
  WS02004411           JUNCTION      0.00   540.64     0  02:27           0        4.24       0.134
  WS02004412           JUNCTION      0.00   540.65     0  02:27           0        4.24       0.178
  WS02004413           JUNCTION      0.00   540.43     0  02:28           0        4.23       0.323
  WS02006109           JUNCTION      1.23   561.18     0  02:35      0.0354        4.36       0.200
  WS02006110           JUNCTION      0.00   561.79     0  02:35           0        4.35       0.163
  WS02006111           JUNCTION      0.00   562.51     0  02:37           0        4.34       0.021
  WS02006112           JUNCTION      0.00   543.59     0  03:16           0        4.34       0.430
  WS02006113           JUNCTION      0.00   569.01     0  02:36           0        4.35       0.044
  WS02006115           JUNCTION      0.00   561.45     0  02:37           0        4.32       0.163
  WS02006116           JUNCTION      0.00   540.85     0  02:17           0        4.32       0.120
  WS02006228           JUNCTION      0.00   560.25     0  02:35           0        4.33       0.113
  WS02006229           JUNCTION      0.00   560.12     0  02:35           0        4.34       0.118
  WS02006230           JUNCTION     10.28   590.53     0  02:00       0.296        4.34       0.112
  WS02006231           JUNCTION      0.00   571.77     0  01:57           0        4.05       0.025
  WS02006232           JUNCTION      0.00   571.08     0  01:57           0        4.05       0.203
  WS02006234           JUNCTION      0.00   567.12     0  01:57           0        4.04      -0.344
  WS02006235           JUNCTION      0.00   560.37     0  01:57           0        4.16       0.368
  WS02006238           JUNCTION      0.00   423.56     0  02:30           0        3.13      -0.264
  WS02006239           JUNCTION      0.00   422.66     0  02:30           0        3.04      -0.274
  WS02006240           JUNCTION      0.00   419.74     0  02:30           0           3      -0.055
  WS02006242           JUNCTION      0.00   419.33     0  02:30           0        2.98      -0.078
  WS02006243           JUNCTION      0.00   419.06     0  02:30           0        2.97      -0.209
  WS02006245           JUNCTION      0.00   441.32     0  03:22           0        2.98       0.481
  WS02006247           JUNCTION      0.00   442.61     0  03:22           0        2.97      -0.091
  WS02006248           JUNCTION      0.00   447.08     0  03:22           0        2.97      -0.117
  WS02006249           JUNCTION      0.00   496.79     0  01:45           0        3.27       0.708
  WS02006251           JUNCTION      0.08   407.14     0  02:06     0.00222        3.28       0.077
  WS02006252           JUNCTION      0.00   400.00     0  00:00           0        3.26      -0.502
  WS02006256           JUNCTION      0.00   300.00     0  00:00           0        1.55      -2.333
  WSF200               JUNCTION      0.00   540.32     0  02:28           0        4.21       0.011
  YS02001580           JUNCTION      0.00   121.42     0  01:42           0     0.00431      -1.273
  YS02001583           JUNCTION      0.00   200.10     0  01:42           0       0.015      -5.931
  YS02001586           JUNCTION    958.43   958.46     0  01:53        2.15        2.16       0.070
  YS02001590           JUNCTION      0.00   323.33     0  01:51           0        1.48      -0.037
  YS02001593           JUNCTION      0.00   323.49     0  01:51           0        1.48       0.001
  YS02001596           JUNCTION      0.00   317.98     0  02:02           0        1.48      -0.012
  YS02001600           JUNCTION      0.00   318.57     0  02:06           0        1.48       0.006
  YS02001601           JUNCTION   1752.10  2069.55     0  01:51        2.93         4.4       0.020
  YS02001602           JUNCTION      0.00   548.34     0  01:42           0         2.4       0.019
  YS02001605           JUNCTION      0.00   548.73     0  01:42           0        2.25       0.022
  YS02001607           JUNCTION      0.00   549.07     0  01:42           0        2.25       0.084
  YS02001610           JUNCTION      0.00   949.36     0  01:54           0        2.75       0.083
  YS02001613           JUNCTION      0.00   613.44     0  01:54           0        2.14       0.072
  YS02001616           JUNCTION      0.00   613.06     0  01:54           0        2.14       0.017
  YS02001619           JUNCTION   1710.42  1710.42     0  01:52        3.45        5.09       0.005
  YS02001622           JUNCTION      0.00  1053.85     0  01:53           0        4.58      -0.005
  YS02001625           JUNCTION      0.00  1490.22     0  01:54           0         4.9       0.184
  YS02001629           JUNCTION      0.00   941.47     0  01:42           0        3.66       0.011
  YS02001633           JUNCTION   1316.80  1427.74     0  01:44        2.14        5.33       0.063
  YS02001641           JUNCTION      0.00  1426.21     0  01:44           0        4.88       0.059
  YS02001644           JUNCTION   1179.81  1877.40     0  01:44        1.86        6.73       0.050
  YS02001647           JUNCTION      0.00  1877.75     0  01:44           0        5.79       0.010
  YS02001649           JUNCTION      0.00  2155.97     0  01:44           0         7.5       0.010
  YS02001652           JUNCTION      0.00  1178.20     0  01:50           0        1.72      -0.039
  YS02001655           JUNCTION      0.15  1177.58     0  01:50     0.00443        1.71      -0.134
  YS02001658           JUNCTION      0.00  1177.44     0  01:50           0        1.72      -0.112
  YS02001661           JUNCTION      0.00  1177.62     0  01:50           0        1.72       0.024
  YS02001664           JUNCTION   1152.95  1152.95     0  01:50        1.71        1.71      -0.022
  YS02001745           JUNCTION    747.46   747.46     0  01:50        1.03        1.03       0.162
  YS02001748           JUNCTION      0.04   764.12     0  01:50      0.0013        1.03      -0.341
  YS02001751           JUNCTION      0.01   764.78     0  01:50    0.000317        1.04       0.071
  YS02001754           JUNCTION      0.26   764.90     0  01:50     0.00749        1.05      -0.187
  YS02001757           JUNCTION      0.00  3610.72     0  01:49           0        11.7       0.044
  YS02001759           JUNCTION   1036.31  1529.70     0  01:49        1.42        3.12      -0.009
  YS02001762           JUNCTION      0.00   853.36     0  01:46           0         1.7      -0.020
  YS02001765           JUNCTION      0.00   855.91     0  01:46           0         1.7       0.016
  YS02001767           JUNCTION      0.54   860.85     0  01:46      0.0154         1.7      -0.000
  YS02001770           JUNCTION   1445.37  1445.37     0  01:50        2.16         2.2      -0.009
  YS02001774           JUNCTION      0.00   850.04     0  01:52           0       0.518       0.239
  YS02001779           JUNCTION      0.01   850.50     0  01:52    0.000144       0.471      -0.246
  YS02001783           JUNCTION      0.00  1172.53     0  01:49           0        4.42       0.005
  YS02001784           JUNCTION      1.06  1173.71     0  01:49      0.0305        4.45       0.012
  YS02001786           JUNCTION      0.06  1173.81     0  01:49     0.00162        4.45       0.015
  YS02001788           JUNCTION      0.07  1174.41     0  01:49     0.00204        4.45       0.007
  YS02001790           JUNCTION      0.15  1188.27     0  01:49     0.00446        4.45       0.023
  YS02001791           JUNCTION      0.00  1293.25     0  01:51           0        4.45      -0.031
  YS02001793           JUNCTION      0.00  1256.26     0  01:48           0        4.45       0.006
  YS02001882           JUNCTION      0.00    48.24     0  01:43           0      0.0135       4.996
  YS02001884           JUNCTION      0.00    95.72     0  01:43           0      0.0496       5.245
  YS02001887           JUNCTION   1120.27  1120.98     0  01:50        1.48        1.51       0.293
  YS02001890           JUNCTION      0.00  1120.20     0  01:49           0        1.47       0.355
  YS02001895           JUNCTION      0.00   517.87     0  01:51           0        1.22       0.140
  YS02001898           JUNCTION      0.00   518.10     0  01:51           0        1.21      -0.010
  YS02001901           JUNCTION      0.00   519.14     0  01:51           0        1.22       0.277
  YS02001904           JUNCTION      0.00   524.14     0  01:51           0        1.22       0.228
  YS02001907           JUNCTION      0.00  2739.32     0  01:51           0        4.51       0.407
  YS02001910           JUNCTION      0.00  1914.63     0  01:51           0        3.21       0.232
  YS02001915           JUNCTION   1275.76  1912.84     0  01:51        2.05        3.26       0.047
  YS02001918           JUNCTION      0.00   635.03     0  01:51           0        1.24       0.028
  YS02001920           JUNCTION      2.87   631.47     0  01:51      0.0827        1.22       0.061
  YS02001923           JUNCTION      0.04   624.37     0  01:51     0.00109        1.12      -0.053
  YS02001926           JUNCTION      0.05   876.11     0  01:45      0.0015         1.1      -0.110
  YS02001929           JUNCTION    613.87   675.41     0  01:45        1.08        1.09      -0.063
  YS02006553           JUNCTION      0.00   797.06     0  02:12           0        2.47       0.480
  YS02006556           JUNCTION      0.00   797.91     0  02:12           0        2.48       0.329
  YS02006558           JUNCTION   1489.92  1489.92     0  01:50        2.16        4.53       0.084
  YS02006561           JUNCTION      0.00  1177.26     0  01:45           0        4.42      -0.003
  YS02163301           JUNCTION      0.00   928.36     0  01:44           0        3.64       0.040
  YS02163601           JUNCTION      0.11  1427.42     0  01:44     0.00317        4.87       0.100
  YS02164001           JUNCTION      0.00  1426.34     0  01:44           0        4.87       0.054
  CC-1                 OUTFALL       0.00   683.00     0  00:00           0         4.7       0.000
  CC-2                 OUTFALL       0.00   683.00     0  00:00           0        4.56       0.000
  JK-1                 OUTFALL       0.00  1000.00     0  00:00           0        1.35       0.000
  JK-2                 OUTFALL       0.00  1000.00     0  00:00           0        1.69       0.000
  WSC                  OUTFALL       0.00   558.24     0  02:28           0        4.73       0.000
  CC-storage           STORAGE       0.00  3611.89     0  01:49           0        13.9      -0.231
  JK-storage           STORAGE       0.00  1256.63     0  01:49           0         4.6      -0.366
  
  
  **********************
  Node Surcharge Summary
  **********************
  
  Surcharging occurs when water rises above the top of the highest conduit.
  ---------------------------------------------------------------------
                                               Max. Height   Min. Depth
                                   Hours       Above Crown    Below Rim
  Node                 Type      Surcharged         Meters       Meters
  ---------------------------------------------------------------------
  WS02004404           JUNCTION        0.07          0.060        2.720
  WS02006109           JUNCTION        1.52          0.407        1.413
  WS02006110           JUNCTION        1.02          0.199        1.651
  WS02006112           JUNCTION        1.10          0.084        1.596
  WS02006228           JUNCTION        1.51          0.628        1.572
  WS02006229           JUNCTION        1.53          0.732        1.718
  WS02006230           JUNCTION        1.03          0.732        0.838
  WS02006231           JUNCTION        1.10          0.765        0.765
  WS02006232           JUNCTION        1.67          0.851        0.629
  WS02006234           JUNCTION        1.30          0.963        0.277
  WS02006235           JUNCTION        1.51          1.018        0.272
  WS02006238           JUNCTION        1.59          1.036        0.394
  WS02006239           JUNCTION        1.54          0.956        0.334
  WS02006240           JUNCTION        1.56          0.901        0.489
  WS02006242           JUNCTION        1.69          0.820        0.000
  WS02006243           JUNCTION        1.58          0.696        0.074
  WS02006245           JUNCTION        1.56          0.742        0.108
  WS02006247           JUNCTION        1.60          0.557        0.203
  WS02006248           JUNCTION        1.54          0.380        0.000
  WS02006249           JUNCTION        1.57          0.390        0.000
  WS02006251           JUNCTION        1.13          0.721        0.459
  WS02006252           JUNCTION        2.12          1.100        0.000
  WS02006256           JUNCTION        6.83          2.050        0.000
  YS02001580           JUNCTION        0.76          0.450        0.000
  YS02001583           JUNCTION        0.77          0.473        0.027
  YS02001586           JUNCTION        0.90          0.510        0.000
  YS02001590           JUNCTION        0.98          0.750        0.000
  YS02001593           JUNCTION        0.98          0.840        0.000
  YS02001596           JUNCTION        1.10          1.038        0.032
  YS02001600           JUNCTION        1.25          1.190        0.000
  YS02001601           JUNCTION        1.57          1.440        0.000
  YS02001602           JUNCTION        1.48          1.270        0.000
  YS02001605           JUNCTION        1.44          1.180        0.000
  YS02001607           JUNCTION        0.98          0.680        0.000
  YS02001610           JUNCTION        1.00          0.680        0.000
  YS02001613           JUNCTION        0.97          0.700        0.000
  YS02001616           JUNCTION        0.93          0.610        0.000
  YS02001619           JUNCTION        0.91          0.610        0.000
  YS02001622           JUNCTION        0.91          0.620        0.000
  YS02001625           JUNCTION        1.09          0.780        0.000
  YS02001629           JUNCTION        0.86          0.470        0.000
  YS02001633           JUNCTION        1.12          1.060        0.000
  YS02001641           JUNCTION        1.08          1.100        0.000
  YS02001644           JUNCTION        1.06          0.920        0.000
  YS02001647           JUNCTION        0.84          0.900        0.000
  YS02001649           JUNCTION        0.99          1.050        0.000
  YS02001652           JUNCTION        0.77          0.982        0.148
  YS02001655           JUNCTION        0.55          0.984        0.216
  YS02001658           JUNCTION        0.31          1.005        0.295
  YS02001661           JUNCTION        0.13          0.547        0.843
  YS02001745           JUNCTION        0.01          0.763        0.587
  YS02001748           JUNCTION        0.25          1.028        0.162
  YS02001751           JUNCTION        0.42          1.153        0.047
  YS02001754           JUNCTION        0.67          1.139        0.011
  YS02001757           JUNCTION        1.07          1.210        0.000
  YS02001759           JUNCTION        0.96          1.210        0.000
  YS02001762           JUNCTION        0.92          1.150        0.000
  YS02001765           JUNCTION        0.87          1.100        0.000
  YS02001767           JUNCTION        0.84          1.018        0.012
  YS02001770           JUNCTION        0.81          0.920        0.000
  YS02001774           JUNCTION        0.91          1.050        0.000
  YS02001779           JUNCTION        0.65          0.680        0.000
  YS02001783           JUNCTION        0.65          0.800        0.800
  YS02001784           JUNCTION        0.62          0.571        0.919
  YS02001786           JUNCTION        0.52          0.189        1.241
  YS02001882           JUNCTION        0.59          0.830        0.000
  YS02001884           JUNCTION        0.60          0.870        0.000
  YS02001887           JUNCTION        0.64          0.875        0.075
  YS02001890           JUNCTION        0.65          0.760        0.000
  YS02001895           JUNCTION        0.58          0.662        0.088
  YS02001898           JUNCTION        0.58          0.740        0.000
  YS02001901           JUNCTION        0.62          0.870        0.000
  YS02001904           JUNCTION        0.61          0.850        0.000
  YS02001907           JUNCTION        0.85          0.950        0.000
  YS02001910           JUNCTION        0.68          1.007        0.093
  YS02001915           JUNCTION        0.59          1.000        0.000
  YS02001918           JUNCTION        0.50          0.810        0.000
  YS02001920           JUNCTION        0.52          1.140        0.000
  YS02001923           JUNCTION        0.20          0.820        0.000
  YS02001926           JUNCTION        0.23          0.900        0.000
  YS02001929           JUNCTION        0.10          0.780        0.000
  YS02006553           JUNCTION        0.87          1.067        0.123
  YS02006556           JUNCTION        0.77          1.126        0.224
  YS02006558           JUNCTION        0.76          1.128        0.272
  YS02006561           JUNCTION        0.47          0.440        0.710
  YS02163301           JUNCTION        1.11          1.030        0.000
  YS02163601           JUNCTION        1.16          1.080        0.000
  YS02164001           JUNCTION        1.08          1.028        0.072
  
  
  *********************
  Node Flooding Summary
  *********************
  
  Flooding refers to all water that overflows a node, whether it ponds or not.
  --------------------------------------------------------------------------
                                                             Total   Maximum
                                 Maximum   Time of Max       Flood    Ponded
                        Hours       Rate    Occurrence      Volume     Depth
  Node                 Flooded       LPS   days hr:min    10^6 ltr    Meters
  --------------------------------------------------------------------------
  WS02006242              0.01      3.50      0  02:35       0.000     0.000
  WS02006248              0.01     16.78      0  02:00       0.000     0.000
  WS02006249              1.12    101.72      0  01:52       0.278     0.000
  WS02006252              0.01    245.63      0  00:00       0.000     0.000
  WS02006256              1.43    293.19      0  00:00       0.508     0.000
  YS02001580              0.01     92.91      0  01:43       0.000     0.000
  YS02001586              0.64    640.91      0  01:53       0.672     0.000
  YS02001590              0.01     51.82      0  01:41       0.000     0.000
  YS02001593              0.01     24.15      0  01:41       0.000     0.000
  YS02001600              0.01      2.68      0  01:43       0.000     0.000
  YS02001601              0.82   1671.18      0  01:51       2.000     0.000
  YS02001602              0.73     62.13      0  01:52       0.149     0.000
  YS02001605              0.01      2.00      0  02:06       0.000     0.000
  YS02001607              0.01      0.85      0  02:06       0.000     0.000
  YS02001610              0.65    949.16      0  01:54       1.109     0.000
  YS02001613              0.01      1.02      0  01:51       0.000     0.000
  YS02001616              0.05     12.20      0  02:06       0.000     0.000
  YS02001619              0.09     58.18      0  01:52       0.010     0.000
  YS02001622              0.01    157.35      0  01:42       0.000     0.000
  YS02001625              0.62   1490.18      0  01:54       1.688     0.000
  YS02001629              0.20    427.23      0  01:49       0.152     0.000
  YS02001633              0.01      5.97      0  01:44       0.000     0.000
  YS02001641              0.01      1.06      0  01:51       0.000     0.000
  YS02001644              0.28   1747.22      0  01:51       0.935     0.000
  YS02001647              0.01      0.77      0  01:51       0.000     0.000
  YS02001649              0.01    132.77      0  01:47       0.001     0.000
  YS02001757              0.01      6.26      0  01:46       0.000     0.000
  YS02001759              0.01      7.35      0  01:46       0.000     0.000
  YS02001762              0.01     13.93      0  01:46       0.000     0.000
  YS02001765              0.01      0.64      0  01:51       0.000     0.000
  YS02001770              0.08    177.99      0  01:50       0.026     0.000
  YS02001774              0.01      0.73      0  01:51       0.000     0.000
  YS02001779              0.25    850.30      0  01:52       0.452     0.000
  YS02001882              0.01     19.51      0  01:51       0.000     0.000
  YS02001884              0.01      0.88      0  02:06       0.000     0.000
  YS02001890              0.23    604.65      0  01:50       0.248     0.000
  YS02001898              0.01      1.01      0  02:06       0.000     0.000
  YS02001904              0.01      1.06      0  02:06       0.000     0.000
  YS02001907              0.45   2739.19      0  01:51       2.117     0.000
  YS02001915              0.01      6.07      0  01:51       0.000     0.000
  YS02001918              0.01    226.75      0  01:45       0.003     0.000
  YS02001920              0.01     72.63      0  01:45       0.000     0.000
  YS02001923              0.01    149.80      0  01:45       0.000     0.000
  YS02001926              0.01    582.57      0  01:45       0.004     0.000
  YS02001929              0.01     41.87      0  01:45       0.000     0.000
  YS02163301              0.01      1.30      0  01:51       0.000     0.000
  YS02163601              0.01      6.73      0  01:44       0.000     0.000
  
  
  **********************
  Storage Volume Summary
  **********************
  
  ------------------------------------------------------------------------------------------------
                         Average    Avg   Evap  Exfil     Maximum    Max    Time of Max    Maximum
                          Volume   Pcnt   Pcnt   Pcnt      Volume   Pcnt     Occurrence    Outflow
  Storage Unit           1000 m³   Full   Loss   Loss     1000 m³   Full    days hr:min        LPS
  ------------------------------------------------------------------------------------------------
  CC-storage               2.409   37.6    0.0    0.0       4.839   75.5       0  02:25    1783.53
  JK-storage               0.076   26.0    0.0    0.0       0.212   72.8       0  02:00    2300.00
  
  
  ***********************
  Outfall Loading Summary
  ***********************
  
  -----------------------------------------------------------
                         Flow       Avg       Max       Total
                         Freq      Flow      Flow      Volume
  Outfall Node           Pcnt       LPS       LPS    10^6 ltr
  -----------------------------------------------------------
  CC-1                  40.31    683.00    683.00       4.704
  CC-2                  38.89    683.00    683.00       4.559
  JK-1                   7.32   1000.00   1000.00       1.348
  JK-2                   9.06   1000.00   1000.00       1.685
  WSC                   99.94    247.72    558.24       4.729
  -----------------------------------------------------------
  System                39.10   3613.72   3923.81      17.024
  
  
  ********************
  Link Flow Summary
  ********************
  
  -----------------------------------------------------------------------------
                                 Maximum  Time of Max   Maximum    Max/    Max/
                                  |Flow|   Occurrence   |Veloc|    Full    Full
  Link                 Type          LPS  days hr:min     m/sec    Flow   Depth
  -----------------------------------------------------------------------------
  1                    CONDUIT    558.24     0  02:28      2.83    0.19    0.30
  WS02003060WS02003069 CONDUIT    557.01     0  02:29      1.64    0.22    0.34
  WS02003066WSF200     CONDUIT    540.32     0  02:28      2.86    0.09    0.22
  WS02003067WS02003066 CONDUIT    540.25     0  02:28      1.21    0.17    0.42
  WS02003069WS02003072 CONDUIT    556.92     0  02:30      1.37    0.27    0.39
  WS02003072WS02003073 CONDUIT    556.63     0  02:30      1.44    1.20    0.37
  WS02004401WS02004402 CONDUIT    542.21     0  02:29      1.07    0.65    0.89
  WS02004402WS02004403 CONDUIT    543.39     0  02:22      1.08    0.78    0.91
  WS02004403WS02004404 CONDUIT    565.91     0  02:27      1.06    0.41    0.96
  WS02004404WS02004405 CONDUIT    615.39     0  02:22      1.23    6.03    0.98
  WS02004405WS02004406 CONDUIT    548.03     0  02:17      1.20    1.08    0.96
  WS02004406WS02004407 CONDUIT    542.04     0  02:18      1.04    0.24    0.63
  WS02004407WS02004409 CONDUIT    541.13     0  02:18      1.52    0.19    0.48
  WS02004409WS02004410 CONDUIT    540.72     0  02:19      1.00    0.70    0.68
  WS02004410WS02004411 CONDUIT    540.64     0  02:27      0.96    0.74    0.69
  WS02004411WS02004412 CONDUIT    540.65     0  02:27      0.93    0.77    0.70
  WS02004412WS02004413 CONDUIT    540.43     0  02:28      0.90    0.36    0.78
  WS02004413WS02003067 CONDUIT    540.12     0  02:28      1.11    0.23    0.59
  WS02006109WS02006110 CONDUIT    561.79     0  02:35      1.12    1.08    1.00
  WS02006110WS02006113 CONDUIT    569.01     0  02:36      1.38    0.52    0.79
  WS02006111WS02006112 CONDUIT    543.59     0  03:16      1.84    0.26    0.67
  WS02006112WS02006115 CONDUIT    561.45     0  02:37      0.85    0.33    0.88
  WS02006113WS02006111 CONDUIT    562.51     0  02:37      2.47    0.67    0.46
  WS02006115WS02006116 CONDUIT    540.85     0  02:17      1.11    0.69    0.79
  WS02006116WS02004401 CONDUIT    541.46     0  02:17      1.07    0.75    0.87
  WS02006228WS02006109 CONDUIT    559.95     0  02:35      1.11    2.45    1.00
  WS02006229WS02006228 CONDUIT    560.25     0  02:35      1.11    1.86    1.00
  WS02006230WS02006229 CONDUIT    560.12     0  02:35      1.46   12.47    1.00
  WS02006231WS02006230 CONDUIT    580.25     0  02:00      1.59    8.80    1.00
  WS02006232WS02006231 CONDUIT    571.77     0  01:57      1.49    1.20    1.00
  WS02006234WS02006232 CONDUIT    571.08     0  01:57      1.48    1.16    1.00
  WS02006235WS02006234 CONDUIT    567.12     0  01:57      1.47    5.98    1.00
  WS02006238WS02006235 CONDUIT    425.61     0  02:30      1.45    0.95    1.00
  WS02006239WS02006238 CONDUIT    423.56     0  02:30      1.10    1.36    1.00
  WS02006240WS02006239 CONDUIT    422.66     0  02:30      1.24    1.33    1.00
  WS02006242WS02006240 CONDUIT    419.74     0  02:30      1.13    1.67    1.00
  WS02006243WS02006242 CONDUIT    419.33     0  02:30      1.40    0.90    1.00
  WS02006245WS02006243 CONDUIT    419.06     0  02:30      1.45    1.24    1.00
  WS02006247WS02006245 CONDUIT    441.32     0  03:22      1.43    3.50    1.00
  WS02006248WS02006247 CONDUIT    442.61     0  03:22      1.45    0.96    1.00
  WS02006249WS02006248 CONDUIT    447.08     0  03:22      1.39    2.45    1.00
  WS02006251WS02006249 CONDUIT    496.79     0  01:45      1.99    1.43    1.00
  WS02006252WS02006251 CONDUIT    407.06     0  02:06     25.69    1.49    1.00
  WS02006256WS02006235 CONDUIT    288.91     0  00:00      4.23    3.06    1.00
  WSF200WS02003060     CONDUIT    540.48     0  02:29      2.06    0.12    0.28
  YS02001580YS02001583 CONDUIT    121.42     0  01:42      0.76    0.47    1.00
  YS02001583YS02001586 CONDUIT    178.28     0  01:42      0.76    0.27    1.00
  YS02001586YS02001590 CONDUIT    323.33     0  01:51      1.26    0.57    1.00
  YS02001590YS02001593 CONDUIT    323.49     0  01:51      1.14    2.03    1.00
  YS02001593YS02001596 CONDUIT    317.98     0  02:02      1.74    0.50    1.00
  YS02001596YS02001600 CONDUIT    318.57     0  02:06      1.24    0.62    1.00
  YS02001600YS02001601 CONDUIT    318.82     0  01:51      1.13    0.55    1.00
  YS02001601YS02001602 CONDUIT    548.34     0  01:42      1.94    1.98    1.00
  YS02001602YS02001605 CONDUIT    548.73     0  01:42      1.94   11.61    1.00
  YS02001605YS02001607 CONDUIT    549.07     0  01:42      1.94    3.01    1.00
  YS02001607YS02001610 CONDUIT    541.60     0  01:42      0.69    0.51    1.00
  YS02001610YS02001613 CONDUIT    613.23     0  01:54      0.78    0.71    1.00
  YS02001613YS02001616 CONDUIT    613.44     0  01:54      0.78    0.53    1.00
  YS02001616YS02001619 CONDUIT    613.06     0  01:54      0.78    1.06    1.00
  YS02001619YS02001622 CONDUIT   1053.85     0  01:53      1.34    1.55    1.00
  YS02001622YS02001625 CONDUIT   1053.59     0  01:53      1.34    0.56    1.00
  YS02001625YS02001629 CONDUIT    941.47     0  01:42      1.20    0.45    1.00
  YS02001629YS02163301 CONDUIT    928.36     0  01:44      1.18    1.14    1.00
  YS02001633YS02163601 CONDUIT   1427.31     0  01:44      1.82    1.50    1.00
  YS02001641YS02001644 CONDUIT   1427.04     0  01:44      1.82    4.61    1.00
  YS02001644YS02001647 CONDUIT   1877.75     0  01:44      2.42    1.10    1.00
  YS02001647YS02001649 CONDUIT   1892.25     0  01:44      2.41    1.00    1.00
  YS02001649YS02001757 CONDUIT   2161.26     0  01:44      2.75    1.31    1.00
  YS02001652YS02001649 CONDUIT   1177.52     0  01:50      1.50    0.58    1.00
  YS02001655YS02001652 CONDUIT   1178.20     0  01:50      1.50    0.57    1.00
  YS02001658YS02001655 CONDUIT   1177.43     0  01:50      1.97    0.50    1.00
  YS02001661YS02001658 CONDUIT   1177.44     0  01:50      2.40    0.46    1.00
  YS02001664YS02001661 CONDUIT   1177.62     0  01:50      2.46    0.37    1.00
  YS02001745YS02001748 CONDUIT    764.08     0  01:50      2.31    0.29    1.00
  YS02001748YS02001751 CONDUIT    764.77     0  01:50      1.80    0.39    1.00
  YS02001751YS02001754 CONDUIT    764.64     0  01:50      1.53    0.37    1.00
  YS02001754YS02001757 CONDUIT    765.22     0  01:50      0.97    0.31    1.00
  YS02001757CaochengTiaoxuchi CONDUIT   3611.89     0  01:49      4.66    1.56    1.00
  YS02001759YS02001757 CONDUIT   1532.15     0  01:49      1.95    1.09    1.00
  YS02001762YS02001759 CONDUIT    851.00     0  01:46      1.08    0.98    1.00
  YS02001765YS02001762 CONDUIT    853.36     0  01:46      1.09    0.80    1.00
  YS02001767YS02001765 CONDUIT    855.91     0  01:46      1.09    1.08    1.00
  YS02001770YS02001767 CONDUIT    860.32     0  01:46      1.10    3.41    1.00
  YS02001774YS02001770 CONDUIT    850.04     0  01:52      1.08    0.54    1.00
  YS02001779YS02001774 CONDUIT    850.50     0  01:52      1.08    0.43    1.00
  YS02001783YS02001784 CONDUIT   1172.65     0  01:49      2.33    1.62    1.00
  YS02001784YS02001785 CONDUIT   1173.76     0  01:49      2.34    2.73    1.00
  YS02001786YS02001788 CONDUIT   1174.34     0  01:49      2.50    2.26    0.89
  YS02001788YS02001790 CONDUIT   1188.12     0  01:49      2.73    0.88    0.85
  YS02001790YS02001791 CONDUIT   1293.25     0  01:51      3.42    1.41    0.71
  YS02001791YS02001793 CONDUIT   1256.26     0  01:48      6.79    0.54    0.45
  YS02001793JiankangQianchi CONDUIT   1256.63     0  01:49      2.52    0.10    0.65
  YS02001882YS02001884 CONDUIT     48.24     0  01:43      0.15    0.06    1.00
  YS02001884YS02001887 CONDUIT     95.72     0  01:43      0.12    0.13    1.00
  YS02001887YS02001890 CONDUIT   1120.20     0  01:49      1.43    1.92    1.00
  YS02001890YS02001895 CONDUIT    517.87     0  01:51      0.66    0.24    1.00
  YS02001895YS02001898 CONDUIT    518.10     0  01:51      0.66    0.90    1.00
  YS02001898YS02001901 CONDUIT    519.14     0  01:51      0.66    0.33    1.00
  YS02001901YS02001904 CONDUIT    524.14     0  01:51      0.67    0.81    1.00
  YS02001904YS02001907 CONDUIT    520.69     0  01:51      0.66    0.18    1.00
  YS02001907YS02006553 CONDUIT    797.06     0  02:12      0.89    0.94    1.00
  YS02001910YS02001907 CONDUIT   1916.40     0  01:51      2.44    1.08    1.00
  YS02001915YS02001910 CONDUIT   1914.63     0  01:51      2.44    0.95    1.00
  YS02001918YS02001915 CONDUIT    639.16     0  01:51      0.81    0.35    1.00
  YS02001920YS02001918 CONDUIT    635.03     0  01:51      0.81    0.61    1.00
  YS02001923YS02001920 CONDUIT    628.60     0  01:51      0.80    0.28    1.00
  YS02001926YS02001923 CONDUIT    624.33     0  01:51      0.97    0.89    1.00
  YS02001929YS02001926 CONDUIT    618.35     0  01:51      1.17    0.29    1.00
  YS02006553YS02006556 CONDUIT    797.91     0  02:12      1.02    0.68    1.00
  YS02006556YS02006558 CONDUIT    798.59     0  02:12      1.02    0.63    1.00
  YS02006558YS02006561 CONDUIT   1177.26     0  01:45      4.16    2.60    1.00
  YS02006561YS02001783 CONDUIT   1172.53     0  01:49      2.33    0.61    1.00
  YS02163301YS02001633 CONDUIT    929.64     0  01:44      1.18    0.87    1.00
  YS02163601YS02164001 CONDUIT   1426.34     0  01:44      1.82    1.26    1.00
  YS02164001YS02001641 CONDUIT   1426.21     0  01:44      1.82    1.95    1.00
  CC-R1                PUMP       683.00     0  00:00              1.00
  CC-R2                PUMP       683.00     0  00:00              1.00
  CC-S1                PUMP       200.00     0  00:00              1.00
  CC-S2                PUMP       200.00     0  00:00              1.00
  JK-R1                PUMP      1000.00     0  00:00              1.00
  JK-R2                PUMP      1000.00     0  00:00              1.00
  JK-S                 PUMP       300.00     0  00:00              1.00
  
  
  ***************************
  Flow Classification Summary
  ***************************
  
  -------------------------------------------------------------------------------------
                      Adjusted    ---------- Fraction of Time in Flow Class ---------- 
                       /Actual         Up    Down  Sub   Sup   Up    Down  Norm  Inlet 
  Conduit               Length    Dry  Dry   Dry   Crit  Crit  Crit  Crit  Ltd   Ctrl  
  -------------------------------------------------------------------------------------
  1                       1.00   0.00  0.00  0.00  0.00  1.00  0.00  0.00  0.35  0.00
  WS02003060WS02003069    1.00   0.00  0.00  0.00  0.98  0.02  0.00  0.00  0.74  0.00
  WS02003066WSF200        1.00   0.06  0.00  0.00  0.00  0.94  0.00  0.00  0.80  0.00
  WS02003067WS02003066    1.00   0.06  0.01  0.00  0.94  0.00  0.00  0.00  0.00  0.00
  WS02003069WS02003072    1.00   0.00  0.00  0.00  0.99  0.01  0.00  0.00  0.77  0.00
  WS02003072WS02003073    1.00   0.00  0.00  0.00  0.00  0.00  0.00  1.00  0.00  0.00
  WS02004401WS02004402    1.00   0.02  0.00  0.00  0.98  0.00  0.00  0.00  0.00  0.00
  WS02004402WS02004403    1.00   0.02  0.00  0.00  0.97  0.00  0.00  0.00  0.00  0.00
  WS02004403WS02004404    1.00   0.00  0.03  0.00  0.97  0.00  0.00  0.00  0.00  0.00
  WS02004404WS02004405    1.00   0.00  0.00  0.00  1.00  0.00  0.00  0.00  0.01  0.00
  WS02004405WS02004406    1.00   0.00  0.00  0.00  1.00  0.00  0.00  0.00  0.00  0.00
  WS02004406WS02004407    1.00   0.00  0.04  0.00  0.96  0.00  0.00  0.00  0.00  0.00
  WS02004407WS02004409    1.00   0.04  0.00  0.00  0.95  0.01  0.00  0.00  0.95  0.00
  WS02004409WS02004410    1.00   0.04  0.00  0.00  0.96  0.00  0.00  0.00  0.00  0.00
  WS02004410WS02004411    1.00   0.04  0.00  0.00  0.96  0.00  0.00  0.00  0.00  0.00
  WS02004411WS02004412    1.00   0.04  0.00  0.00  0.96  0.00  0.00  0.00  0.00  0.00
  WS02004412WS02004413    1.00   0.04  0.00  0.00  0.95  0.00  0.00  0.00  0.00  0.00
  WS02004413WS02003067    1.00   0.04  0.01  0.00  0.00  0.00  0.94  0.00  0.00  0.00
  WS02006109WS02006110    1.00   0.00  0.01  0.00  0.98  0.00  0.01  0.00  0.00  0.00
  WS02006110WS02006113    1.00   0.01  0.01  0.00  0.98  0.00  0.00  0.00  0.00  0.00
  WS02006111WS02006112    1.00   0.02  0.00  0.00  0.98  0.00  0.00  0.00  0.98  0.00
  WS02006112WS02006115    1.00   0.02  0.00  0.00  0.97  0.00  0.00  0.00  0.00  0.00
  WS02006113WS02006111    1.00   0.02  0.00  0.00  0.00  0.98  0.00  0.00  0.11  0.00
  WS02006115WS02006116    1.00   0.02  0.00  0.00  0.97  0.00  0.00  0.01  0.00  0.00
  WS02006116WS02004401    1.00   0.02  0.00  0.00  0.98  0.00  0.00  0.00  0.00  0.00
  WS02006228WS02006109    1.00   0.00  0.00  0.00  1.00  0.00  0.00  0.00  0.00  0.00
  WS02006229WS02006228    1.00   0.00  0.00  0.00  0.99  0.00  0.00  0.01  0.00  0.00
  WS02006230WS02006229    1.00   0.00  0.00  0.00  0.99  0.00  0.00  0.01  0.03  0.00
  WS02006231WS02006230    1.00   0.00  0.00  0.00  0.23  0.00  0.77  0.00  0.00  0.00
  WS02006232WS02006231    1.00   0.00  0.00  0.00  0.99  0.00  0.01  0.00  0.00  0.00
  WS02006234WS02006232    1.00   0.00  0.00  0.00  1.00  0.00  0.00  0.00  0.04  0.00
  WS02006235WS02006234    1.00   0.00  0.00  0.00  0.84  0.00  0.16  0.00  0.00  0.00
  WS02006238WS02006235    1.00   0.00  0.00  0.00  1.00  0.00  0.00  0.00  0.00  0.00
  WS02006239WS02006238    1.00   0.00  0.00  0.00  1.00  0.00  0.00  0.00  0.20  0.00
  WS02006240WS02006239    1.00   0.00  0.00  0.00  0.65  0.00  0.00  0.35  0.05  0.00
  WS02006242WS02006240    1.00   0.00  0.00  0.00  0.99  0.00  0.01  0.00  0.00  0.00
  WS02006243WS02006242    1.00   0.00  0.00  0.00  0.99  0.00  0.00  0.01  0.63  0.00
  WS02006245WS02006243    1.00   0.00  0.00  0.00  0.79  0.00  0.00  0.21  0.01  0.00
  WS02006247WS02006245    1.00   0.00  0.00  0.00  0.97  0.00  0.00  0.03  0.00  0.00
  WS02006248WS02006247    1.00   0.00  0.00  0.00  0.98  0.00  0.00  0.02  0.58  0.00
  WS02006249WS02006248    1.00   0.00  0.00  0.00  0.39  0.00  0.61  0.00  0.00  0.00
  WS02006251WS02006249    1.00   0.00  0.00  0.00  0.99  0.01  0.00  0.00  0.60  0.00
  WS02006252WS02006251    1.00   0.01  0.49  0.00  0.14  0.00  0.36  0.00  0.00  0.00
  WS02006256WS02006235    1.00   0.00  0.00  0.00  0.98  0.02  0.00  0.00  0.00  0.00
  WSF200WS02003060        1.00   0.00  0.06  0.00  0.46  0.48  0.00  0.00  0.67  0.00
  YS02001580YS02001583    1.00   0.21  0.57  0.00  0.21  0.00  0.00  0.00  0.67  0.00
  YS02001583YS02001586    1.00   0.42  0.31  0.00  0.27  0.00  0.00  0.00  0.67  0.00
  YS02001586YS02001590    1.00   0.13  0.00  0.00  0.43  0.04  0.00  0.40  0.34  0.00
  YS02001590YS02001593    1.00   0.13  0.01  0.00  0.14  0.00  0.73  0.00  0.00  0.00
  YS02001593YS02001596    1.00   0.13  0.00  0.00  0.16  0.01  0.00  0.70  0.02  0.00
  YS02001596YS02001600    1.00   0.14  0.00  0.00  0.21  0.01  0.00  0.64  0.04  0.00
  YS02001600YS02001601    1.00   0.13  0.01  0.00  0.86  0.00  0.00  0.00  0.60  0.00
  YS02001601YS02001602    1.00   0.13  0.01  0.00  0.87  0.00  0.00  0.00  0.00  0.00
  YS02001602YS02001605    1.00   0.13  0.00  0.00  0.86  0.00  0.00  0.00  0.00  0.00
  YS02001605YS02001607    1.00   0.14  0.00  0.00  0.86  0.00  0.00  0.00  0.00  0.00
  YS02001607YS02001610    1.00   0.13  0.01  0.00  0.86  0.00  0.00  0.00  0.01  0.00
  YS02001610YS02001613    1.00   0.13  0.00  0.00  0.87  0.00  0.00  0.00  0.00  0.00
  YS02001613YS02001616    1.00   0.13  0.00  0.00  0.87  0.00  0.00  0.00  0.00  0.00
  YS02001616YS02001619    1.00   0.13  0.00  0.00  0.87  0.00  0.00  0.00  0.00  0.00
  YS02001619YS02001622    1.00   0.13  0.00  0.00  0.87  0.00  0.00  0.00  0.28  0.00
  YS02001622YS02001625    1.00   0.13  0.00  0.00  0.87  0.00  0.00  0.00  0.04  0.00
  YS02001625YS02001629    1.00   0.13  0.04  0.00  0.18  0.00  0.65  0.00  0.00  0.00
  YS02001629YS02163301    1.00   0.15  0.01  0.00  0.84  0.00  0.00  0.00  0.00  0.00
  YS02001633YS02163601    1.00   0.00  0.01  0.00  0.99  0.00  0.00  0.00  0.15  0.00
  YS02001641YS02001644    1.00   0.00  0.01  0.00  0.99  0.00  0.00  0.00  0.00  0.00
  YS02001644YS02001647    1.00   0.00  0.17  0.00  0.83  0.00  0.00  0.00  0.00  0.00
  YS02001647YS02001649    1.00   0.00  0.17  0.00  0.57  0.26  0.00  0.00  0.57  0.00
  YS02001649YS02001757    1.00   0.00  0.00  0.00  0.72  0.28  0.00  0.00  0.46  0.00
  YS02001652YS02001649    1.00   0.00  0.00  0.00  0.97  0.03  0.00  0.00  0.73  0.00
  YS02001655YS02001652    1.00   0.00  0.00  0.00  0.20  0.01  0.00  0.79  0.04  0.00
  YS02001658YS02001655    1.00   0.00  0.14  0.00  0.69  0.17  0.00  0.00  0.65  0.00
  YS02001661YS02001658    1.00   0.14  0.00  0.00  0.53  0.33  0.00  0.00  0.69  0.00
  YS02001664YS02001661    1.00   0.13  0.00  0.00  0.78  0.10  0.00  0.00  0.84  0.00
  YS02001745YS02001748    1.00   0.00  0.00  0.00  0.13  0.01  0.00  0.87  0.05  0.00
  YS02001748YS02001751    1.00   0.00  0.00  0.00  0.85  0.15  0.00  0.00  0.77  0.00
  YS02001751YS02001754    1.00   0.00  0.00  0.00  0.19  0.00  0.00  0.81  0.03  0.00
  YS02001754YS02001757    1.00   0.00  0.00  0.00  1.00  0.00  0.00  0.00  0.80  0.00
  YS02001757CaochengTiaoxuchi    1.00   0.00  0.00  0.00  0.97  0.03  0.00  0.00  0.78  0.00
  YS02001759YS02001757    1.00   0.00  0.00  0.00  1.00  0.00  0.00  0.00  0.61  0.00
  YS02001762YS02001759    1.00   0.00  0.00  0.00  1.00  0.00  0.00  0.00  0.04  0.00
  YS02001765YS02001762    1.00   0.00  0.00  0.00  1.00  0.00  0.00  0.00  0.72  0.00
  YS02001767YS02001765    1.00   0.00  0.00  0.00  1.00  0.00  0.00  0.00  0.00  0.00
  YS02001770YS02001767    1.00   0.00  0.00  0.00  1.00  0.00  0.00  0.00  0.00  0.00
  YS02001774YS02001770    1.00   0.00  0.13  0.00  0.70  0.00  0.17  0.00  0.03  0.00
  YS02001779YS02001774    1.00   0.00  0.00  0.00  1.00  0.00  0.00  0.00  0.76  0.00
  YS02001783YS02001784    1.00   0.00  0.17  0.00  0.83  0.00  0.00  0.00  0.55  0.00
  YS02001784YS02001785    1.00   0.00  0.00  0.00  1.00  0.00  0.00  0.00  0.16  0.00
  YS02001786YS02001788    1.00   0.00  0.00  0.00  0.80  0.20  0.00  0.00  0.00  0.00
  YS02001788YS02001790    1.00   0.00  0.00  0.00  0.21  0.79  0.00  0.00  0.80  0.00
  YS02001790YS02001791    1.00   0.00  0.00  0.00  0.01  0.99  0.00  0.00  0.16  0.00
  YS02001791YS02001793    1.00   0.00  0.00  0.00  0.00  1.00  0.00  0.00  0.01  0.00
  YS02001793JiankangQianchi    1.00   0.00  0.00  0.00  0.96  0.04  0.00  0.00  0.96  0.00
  YS02001882YS02001884    1.00   0.15  0.01  0.00  0.84  0.00  0.00  0.00  0.00  0.00
  YS02001884YS02001887    1.00   0.06  0.05  0.00  0.89  0.00  0.00  0.00  0.00  0.00
  YS02001887YS02001890    1.00   0.00  0.00  0.00  0.97  0.00  0.03  0.00  0.00  0.00
  YS02001890YS02001895    1.00   0.00  0.16  0.00  0.84  0.00  0.00  0.00  0.00  0.00
  YS02001895YS02001898    1.00   0.16  0.00  0.00  0.82  0.00  0.02  0.00  0.00  0.00
  YS02001898YS02001901    1.00   0.16  0.00  0.00  0.84  0.00  0.00  0.00  0.01  0.00
  YS02001901YS02001904    1.00   0.16  0.00  0.00  0.84  0.00  0.00  0.00  0.00  0.00
  YS02001904YS02001907    1.00   0.00  0.16  0.00  0.84  0.00  0.00  0.00  0.00  0.00
  YS02001907YS02006553    1.00   0.00  0.02  0.00  0.98  0.00  0.00  0.00  0.00  0.00
  YS02001910YS02001907    1.00   0.00  0.00  0.00  0.97  0.00  0.00  0.03  0.12  0.00
  YS02001915YS02001910    1.00   0.00  0.00  0.00  0.97  0.03  0.00  0.00  0.15  0.00
  YS02001918YS02001915    1.00   0.00  0.01  0.00  0.98  0.02  0.00  0.00  0.74  0.00
  YS02001920YS02001918    1.00   0.00  0.01  0.00  0.99  0.00  0.00  0.00  0.00  0.00
  YS02001923YS02001920    1.00   0.00  0.00  0.00  1.00  0.00  0.00  0.00  0.91  0.00
  YS02001926YS02001923    1.00   0.00  0.07  0.00  0.07  0.00  0.85  0.00  0.00  0.00
  YS02001929YS02001926    1.00   0.00  0.13  0.00  0.87  0.00  0.00  0.00  0.81  0.00
  YS02006553YS02006556    1.00   0.01  0.00  0.00  0.99  0.00  0.00  0.00  0.03  0.00
  YS02006556YS02006558    1.00   0.00  0.00  0.00  1.00  0.00  0.00  0.00  0.00  0.00
  YS02006558YS02006561    1.00   0.17  0.00  0.00  0.07  0.76  0.00  0.00  0.18  0.00
  YS02006561YS02001783    1.00   0.17  0.00  0.00  0.10  0.73  0.00  0.00  0.68  0.00
  YS02163301YS02001633    1.00   0.00  0.15  0.00  0.85  0.00  0.00  0.00  0.00  0.00
  YS02163601YS02164001    1.00   0.00  0.08  0.00  0.92  0.00  0.00  0.00  0.00  0.00
  YS02164001YS02001641    1.00   0.01  0.07  0.00  0.92  0.00  0.00  0.00  0.05  0.00
  
  
  *************************
  Conduit Surcharge Summary
  *************************
  
  ----------------------------------------------------------------------------
                                                           Hours        Hours 
                         --------- Hours Full --------   Above Full   Capacity
  Conduit                Both Ends  Upstream  Dnstream   Normal Flow   Limited
  ----------------------------------------------------------------------------
  WS02003072WS02003073        0.01      0.01      0.01      1.28         0.01
  WS02004403WS02004404        0.01      0.01      0.05      0.01         0.01
  WS02004404WS02004405        0.01      0.05      0.01      2.56         0.01
  WS02004405WS02004406        0.01      0.01      0.01      0.95         0.01
  WS02006109WS02006110        1.02      1.02      1.66      1.08         0.01
  WS02006110WS02006113        0.01      0.01      1.59      0.01         0.01
  WS02006111WS02006112        0.01      0.01      2.08      0.01         0.01
  WS02006112WS02006115        0.01      0.01      1.10      0.01         0.01
  WS02006228WS02006109        1.52      1.66      1.52      2.16         1.52
  WS02006229WS02006228        1.51      1.53      1.51      1.95         1.50
  WS02006230WS02006229        1.79      1.91      1.79      3.27         1.79
  WS02006231WS02006230        1.02      1.02      1.12      2.93         0.01
  WS02006232WS02006231        1.10      1.10      1.67      1.16         0.01
  WS02006234WS02006232        1.49      1.50      1.67      1.14         1.13
  WS02006235WS02006234        1.29      1.30      1.51      2.68         0.01
  WS02006238WS02006235        1.54      1.54      1.68      0.01         0.01
  WS02006239WS02006238        1.59      1.65      1.59      1.84         1.41
  WS02006240WS02006239        1.54      1.58      1.54      1.82         1.29
  WS02006242WS02006240        1.56      1.56      1.77      2.09         0.01
  WS02006243WS02006242        1.60      1.60      1.69      0.01         0.02
  WS02006245WS02006243        1.57      1.59      1.58      0.81         0.62
  WS02006247WS02006245        1.56      1.61      1.56      2.36         1.55
  WS02006248WS02006247        1.56      1.56      1.60      0.01         0.02
  WS02006249WS02006248        1.54      1.54      1.57      2.33         0.01
  WS02006251WS02006249        1.57      1.59      1.57      1.98         1.52
  WS02006252WS02006251        2.09      2.09      2.12      2.10         0.01
  WS02006256WS02006235        2.71      2.77      6.72      1.48         0.01
  YS02001580YS02001583        0.76      0.76      0.82      0.01         0.01
  YS02001583YS02001586        0.77      0.77      0.90      0.01         0.01
  YS02001586YS02001590        0.91      0.91      0.98      0.01         0.01
  YS02001590YS02001593        0.98      0.98      1.00      1.04         0.01
  YS02001593YS02001596        0.99      0.99      1.10      0.01         0.01
  YS02001596YS02001600        1.14      1.14      1.25      0.01         0.01
  YS02001600YS02001601        1.31      1.31      1.57      0.01         0.01
  YS02001601YS02001602        1.48      1.48      1.60      1.24         0.01
  YS02001602YS02001605        1.44      1.44      1.48      2.30         0.01
  YS02001605YS02001607        1.40      1.44      1.40      1.54         1.40
  YS02001607YS02001610        0.98      0.98      1.00      0.01         0.01
  YS02001610YS02001613        0.97      0.97      1.00      0.01         0.01
  YS02001613YS02001616        0.93      0.93      0.97      0.01         0.01
  YS02001616YS02001619        0.91      0.91      0.93      0.08         0.09
  YS02001619YS02001622        0.91      0.91      0.91      0.97         0.86
  YS02001622YS02001625        0.91      0.91      1.09      0.01         0.01
  YS02001625YS02001629        0.86      0.86      1.09      0.01         0.01
  YS02001629YS02163301        1.10      1.10      1.11      0.04         0.16
  YS02001633YS02163601        1.12      1.12      1.16      0.33         0.31
  YS02001641YS02001644        1.06      1.08      1.06      1.62         1.04
  YS02001644YS02001647        0.84      0.84      1.06      0.04         0.01
  YS02001647YS02001649        0.84      0.84      0.99      0.01         0.01
  YS02001649YS02001757        0.99      0.99      1.07      0.06         0.06
  YS02001652YS02001649        0.80      0.80      0.99      0.01         0.01
  YS02001655YS02001652        0.55      0.55      0.77      0.01         0.01
  YS02001658YS02001655        0.31      0.31      0.55      0.01         0.01
  YS02001661YS02001658        0.13      0.13      0.31      0.01         0.01
  YS02001664YS02001661        0.01      0.01      0.17      0.01         0.01
  YS02001745YS02001748        0.01      0.01      0.25      0.01         0.01
  YS02001748YS02001751        0.29      0.29      0.42      0.01         0.01
  YS02001751YS02001754        0.42      0.42      0.67      0.01         0.01
  YS02001754YS02001757        0.72      0.72      1.07      0.01         0.01
  YS02001757CaochengTiaoxuchi        0.99      1.07      1.51      0.44         0.34
  YS02001759YS02001757        0.96      0.96      1.07      0.11         0.10
  YS02001762YS02001759        0.92      0.92      0.96      0.01         0.03
  YS02001765YS02001762        0.87      0.87      0.92      0.01         0.01
  YS02001767YS02001765        0.84      0.84      0.87      0.01         0.02
  YS02001770YS02001767        0.84      0.84      0.84      0.64         0.57
  YS02001774YS02001770        0.81      0.81      0.91      0.01         0.01
  YS02001779YS02001774        0.65      0.65      0.91      0.01         0.01
  YS02001783YS02001784        0.62      0.65      0.62      0.79         0.62
  YS02001784YS02001785        0.52      0.62      0.52      1.03         0.52
  YS02001786YS02001788        0.01      0.52      0.01      0.88         0.01
  YS02001790YS02001791        0.01      0.01      0.01      0.61         0.01
  YS02001793JiankangQianchi        0.01      0.01      6.39      0.01         0.01
  YS02001882YS02001884        0.59      0.59      0.60      0.01         0.01
  YS02001884YS02001887        0.63      0.63      0.64      0.01         0.01
  YS02001887YS02001890        0.65      0.65      0.66      0.19         0.01
  YS02001890YS02001895        0.58      0.58      0.68      0.01         0.01
  YS02001895YS02001898        0.58      0.58      0.58      0.01         0.01
  YS02001898YS02001901        0.58      0.58      0.62      0.01         0.01
  YS02001901YS02001904        0.61      0.61      0.62      0.01         0.01
  YS02001904YS02001907        0.61      0.61      0.87      0.01         0.01
  YS02001907YS02006553        1.05      1.05      1.12      0.01         0.01
  YS02001910YS02001907        0.68      0.68      0.85      0.07         0.07
  YS02001915YS02001910        0.59      0.59      0.68      0.01         0.01
  YS02001918YS02001915        0.50      0.50      0.59      0.01         0.01
  YS02001920YS02001918        0.50      0.50      0.52      0.01         0.01
  YS02001923YS02001920        0.46      0.46      0.52      0.01         0.01
  YS02001926YS02001923        0.20      0.20      0.23      0.01         0.01
  YS02001929YS02001926        0.10      0.10      0.23      0.01         0.01
  YS02006553YS02006556        0.77      0.77      0.87      0.01         0.01
  YS02006556YS02006558        0.81      0.81      0.89      0.01         0.01
  YS02006558YS02006561        0.54      0.76      0.54      0.98         0.54
  YS02006561YS02001783        0.47      0.47      0.65      0.01         0.01
  YS02163301YS02001633        1.11      1.11      1.14      0.01         0.01
  YS02163601YS02164001        1.08      1.08      1.16      0.05         0.01
  YS02164001YS02001641        1.08      1.08      1.08      0.74         0.74
  
  
  ***************
  Pumping Summary
  ***************
  
  ---------------------------------------------------------------------------------------------------------
                                                  Min       Avg       Max     Total     Power    % Time Off
                        Percent   Number of      Flow      Flow      Flow    Volume     Usage    Pump Curve
  Pump                 Utilized   Start-Ups       LPS       LPS       LPS  10^6 ltr     Kw-hr    Low   High
  ---------------------------------------------------------------------------------------------------------
  CC-R1                   23.97          21      0.00    683.00    683.00     4.715     87.70    0.0   21.9
  CC-R2                   23.27          26      0.00    683.00    683.00     4.578     84.39    0.0   30.7
  CC-S1                   28.83          23      0.00    200.00    200.00     1.661      9.50    0.0    0.0
  CC-S2                   27.83          25      0.00    200.00    200.00     1.603      9.22    0.0    0.0
  JK-R1                    4.69          20      0.00   1000.00   1000.00     1.350     12.20    0.0    0.0
  JK-R2                    5.86          19      0.00   1000.00   1000.00     1.687     16.74    0.0    0.0
  JK-S                    17.87          38      0.00    300.00    300.00     1.544     26.39    0.0    0.0
  

  Analysis begun on:  Mon Dec 30 10:14:32 2024
  Analysis ended on:  Mon Dec 30 10:14:33 2024
  Total elapsed time: 00:00:01