
  EPA STORM WATER MANAGEMENT MODEL - VERSION 5.2 (Build 5.2.4)
  PYSWMM TOOLKIT API - VERSION v1.0 (2023-11-27)
  ------------------------------------------------------------

  WARNING 04: minimum elevation drop used for Conduit WS02004404WS02004405
  WARNING 03: negative offset ignored for Link YS02001904YS02001907
  
  ****************
  Analysis Options
  ****************
  Flow Units ............... LPS
  Process Models:
    Rainfall/Runoff ........ YES
    RDII ................... NO
    Snowmelt ............... NO
    Groundwater ............ NO
    Flow Routing ........... YES
    Ponding Allowed ........ NO
    Water Quality .......... NO
  Infiltration Method ...... HORTON
  Flow Routing Method ...... DYNWAVE
  Surcharge Method ......... EXTRAN
  Starting Date ............ 08/28/2015 08:00:00
  Ending Date .............. 08/28/2015 16:00:00
  Antecedent Dry Days ...... 8.0
  Report Time Step ......... 00:01:00
  Wet Time Step ............ 00:01:00
  Dry Time Step ............ 00:01:00
  Routing Time Step ........ 30.00 sec
  Variable Time Step ....... YES
  Maximum Trials ........... 8
  Number of Threads ........ 4
  Head Tolerance ........... 0.001500 m
  
  
  **************************        Volume         Depth
  Runoff Quantity Continuity     hectare-m            mm
  **************************     ---------       -------
  Total Precipitation ......         2.988        90.085
  Evaporation Loss .........         0.000         0.000
  Infiltration Loss ........         0.102         3.067
  Surface Runoff ...........         2.854        86.049
  Final Storage ............         0.033         0.995
  Continuity Error (%) .....        -0.029
  
  
  **************************        Volume        Volume
  Flow Routing Continuity        hectare-m      10^6 ltr
  **************************     ---------     ---------
  Dry Weather Inflow .......         0.025         0.251
  Wet Weather Inflow .......         2.854        28.545
  Groundwater Inflow .......         0.000         0.000
  RDII Inflow ..............         0.000         0.000
  External Inflow ..........         0.083         0.834
  External Outflow .........         1.761        17.615
  Flooding Loss ............         1.273        12.725
  Evaporation Loss .........         0.000         0.000
  Exfiltration Loss ........         0.000         0.000
  Initial Stored Volume ....         0.243         2.431
  Final Stored Volume ......         0.182         1.820
  Continuity Error (%) .....        -0.314
  
  
  *************************
  Highest Continuity Errors
  *************************
  Node YS02001884 (4.88%)
  Node YS02001583 (-4.83%)
  Node WS02006256 (-2.34%)
  
  
  ***************************
  Time-Step Critical Elements
  ***************************
  Link WS02006252WS02006251 (22.48%)
  Link WS02006238WS02006235 (21.45%)
  Link WS02004404WS02004405 (21.36%)
  Link YS02001791YS02001793 (10.13%)
  Link WS02006235WS02006234 (8.05%)
  
  
  ********************************
  Highest Flow Instability Indexes
  ********************************
  Link WS02006113WS02006111 (36)
  Link WS02006256WS02006235 (25)
  Link WS02006238WS02006235 (24)
  Link WS02006252WS02006251 (23)
  Link WS02006111WS02006112 (21)
  
  
  *********************************
  Most Frequent Nonconverging Nodes
  *********************************
  Node CC-1 (12.46%)
  Node CC-2 (12.46%)
  Node JK-1 (12.46%)
  Node JK-2 (12.46%)
  Node WSC (12.46%)
  
  
  *************************
  Routing Time Step Summary
  *************************
  Minimum Time Step           :     0.00 sec
  Average Time Step           :     2.71 sec
  Maximum Time Step           :     6.43 sec
  % of Time in Steady State   :     0.00
  Average Iterations per Step :     3.50
  % of Steps Not Converging   :    12.46
  Time Step Frequencies       :
     30.000 - 13.228 sec      :     0.00 %
     13.228 -  5.833 sec      :    13.70 %
      5.833 -  2.572 sec      :    27.46 %
      2.572 -  1.134 sec      :    32.38 %
      1.134 -  0.500 sec      :    26.46 %
  
  
  ***************************
  Subcatchment Runoff Summary
  ***************************
  
  ------------------------------------------------------------------------------------------------------------------------------
                            Total      Total      Total      Total     Imperv       Perv      Total       Total     Peak  Runoff
                           Precip      Runon       Evap      Infil     Runoff     Runoff     Runoff      Runoff   Runoff   Coeff
  Subcatchment                 mm         mm         mm         mm         mm         mm         mm    10^6 ltr      LPS
  ------------------------------------------------------------------------------------------------------------------------------
  sub60                     90.08       0.00       0.00       1.83      78.09       8.98      87.07        1.14   906.32   0.967
  sub61                     90.08       0.00       0.00       2.66      73.65      12.66      86.32        1.58  1260.88   0.958
  sub62                     90.08       0.00       0.00       1.22      81.60       5.99      87.59        2.40  1776.03   0.972
  sub63                     90.08       0.00       0.00       4.91      63.00      21.23      84.23        1.91  1426.86   0.935
  sub64                     90.08       0.00       0.00       2.48      75.38      11.04      86.41        2.08  1457.36   0.959
  sub65                     90.08       0.00       0.00       2.15      77.13       9.57      86.70        2.39  1626.01   0.962
  sub66                     90.08       0.00       0.00       6.12      62.89      20.01      82.90        3.87  2154.00   0.920
  sub67                     90.08       0.00       0.00       1.18      81.65       6.04      87.68        1.63  1370.55   0.973
  sub68                     90.08       0.00       0.00       2.20      76.30      10.42      86.71        2.39  1819.79   0.963
  sub69                     90.08       0.00       0.00       1.97      76.47      11.55      88.02        3.26  2158.58   0.977
  sub70                     90.08       0.00       0.00       6.66      59.30      23.97      83.27        2.41  1201.28   0.924
  sub71                     90.08       0.00       0.00       1.25      81.56       5.96      87.52        2.29  1570.26   0.972
  sub72                     90.08       0.00       0.00       1.11      82.39       5.19      87.58        1.20   758.68   0.972
  
  
  ******************
  Node Depth Summary
  ******************
  
  ---------------------------------------------------------------------------------
                                 Average  Maximum  Maximum  Time of Max    Reported
                                   Depth    Depth      HGL   Occurrence   Max Depth
  Node                 Type       Meters   Meters   Meters  days hr:min      Meters
  ---------------------------------------------------------------------------------
  WS02003060           JUNCTION     0.21     0.39     5.32     0  02:34        0.39
  WS02003066           JUNCTION     0.18     0.30     5.85     0  02:34        0.30
  WS02003067           JUNCTION     0.46     0.70     6.02     0  02:34        0.70
  WS02003069           JUNCTION     0.24     0.43     5.02     0  02:33        0.43
  WS02003072           JUNCTION     0.30     0.50     4.87     0  02:33        0.50
  WS02003073           JUNCTION     0.17     0.30     4.36     0  02:34        0.30
  WS02004401           JUNCTION     0.55     0.88     6.88     0  02:26        0.88
  WS02004402           JUNCTION     0.58     0.91     6.87     0  02:30        0.91
  WS02004403           JUNCTION     0.60     0.92     6.85     0  02:29        0.92
  WS02004404           JUNCTION     0.68     1.05     6.90     0  02:27        1.00
  WS02004405           JUNCTION     0.67     0.97     6.82     0  02:29        0.97
  WS02004406           JUNCTION     0.68     0.96     6.79     0  02:30        0.96
  WS02004407           JUNCTION     0.16     0.30     6.61     0  02:30        0.30
  WS02004409           JUNCTION     0.35     0.67     6.44     0  02:30        0.67
  WS02004410           JUNCTION     0.37     0.68     6.40     0  02:31        0.68
  WS02004411           JUNCTION     0.40     0.69     6.37     0  02:31        0.69
  WS02004412           JUNCTION     0.42     0.70     6.34     0  02:31        0.70
  WS02004413           JUNCTION     0.57     0.86     6.33     0  02:31        0.86
  WS02006109           JUNCTION     0.61     1.07     7.69     0  02:46        0.97
  WS02006110           JUNCTION     0.61     1.11     7.70     0  02:46        0.92
  WS02006111           JUNCTION     0.16     0.29     6.99     0  02:07        0.29
  WS02006112           JUNCTION     0.70     1.09     6.98     0  02:38        1.07
  WS02006113           JUNCTION     0.24     0.46     7.35     0  03:05        0.46
  WS02006115           JUNCTION     0.44     0.78     6.92     0  02:31        0.78
  WS02006116           JUNCTION     0.52     0.86     6.90     0  02:27        0.86
  WS02006228           JUNCTION     0.60     1.09     7.74     0  02:46        1.01
  WS02006229           JUNCTION     0.57     1.12     7.81     0  02:45        1.05
  WS02006230           JUNCTION     0.58     1.27     8.01     0  02:45        1.14
  WS02006231           JUNCTION     0.40     1.06     8.19     0  02:45        0.88
  WS02006232           JUNCTION     0.53     1.29     8.32     0  02:45        1.08
  WS02006234           JUNCTION     0.45     1.18     8.33     0  02:45        1.12
  WS02006235           JUNCTION     0.49     1.25     8.42     0  03:01        1.25
  WS02006238           JUNCTION     0.52     1.32     8.47     0  03:01        1.32
  WS02006239           JUNCTION     0.48     1.37     8.58     0  03:01        1.37
  WS02006240           JUNCTION     0.45     1.37     8.66     0  03:01        1.37
  WS02006242           JUNCTION     0.52     1.44     8.71     0  03:01        1.44
  WS02006243           JUNCTION     0.44     1.32     8.74     0  03:01        1.32
  WS02006245           JUNCTION     0.44     1.26     8.74     0  03:01        1.26
  WS02006247           JUNCTION     0.46     1.22     8.72     0  03:01        1.22
  WS02006248           JUNCTION     0.42     1.10     8.69     0  03:01        1.10
  WS02006249           JUNCTION     0.45     1.09     8.69     0  02:02        1.09
  WS02006251           JUNCTION     0.45     1.33     9.00     0  02:02        1.13
  WS02006252           JUNCTION     0.32     1.50     9.74     0  00:00        0.69
  WS02006256           JUNCTION     1.00     2.35     9.28     0  00:00        2.35
  WSF200               JUNCTION     0.15     0.29     5.53     0  02:34        0.29
  YS02001580           JUNCTION     0.14     1.05     9.59     0  01:50        0.77
  YS02001583           JUNCTION     0.17     1.03     9.52     0  01:50        0.84
  YS02001586           JUNCTION     0.27     1.13     9.30     0  01:50        1.13
  YS02001590           JUNCTION     0.38     1.39     9.25     0  01:50        1.38
  YS02001593           JUNCTION     0.31     1.30     9.16     0  01:50        1.28
  YS02001596           JUNCTION     0.42     1.67     9.09     0  01:50        1.65
  YS02001600           JUNCTION     0.49     1.87     9.00     0  01:50        1.86
  YS02001601           JUNCTION     0.68     2.06     8.90     0  01:49        2.06
  YS02001602           JUNCTION     0.59     1.87     8.77     0  01:50        1.87
  YS02001605           JUNCTION     0.55     1.78     8.68     0  01:53        1.78
  YS02001607           JUNCTION     0.53     1.66     8.50     0  01:56        1.66
  YS02001610           JUNCTION     0.57     1.68     8.48     0  01:52        1.68
  YS02001613           JUNCTION     0.53     1.68     8.52     0  01:53        1.68
  YS02001616           JUNCTION     0.47     1.61     8.52     0  01:58        1.61
  YS02001619           JUNCTION     0.44     1.61     8.54     0  01:58        1.61
  YS02001622           JUNCTION     0.43     1.62     8.52     0  02:06        1.62
  YS02001625           JUNCTION     0.68     1.78     8.38     0  01:52        1.78
  YS02001629           JUNCTION     0.56     1.85     8.40     0  01:50        1.85
  YS02001633           JUNCTION     0.64     2.08     8.53     0  01:56        2.08
  YS02001641           JUNCTION     0.61     2.00     8.43     0  01:56        2.00
  YS02001644           JUNCTION     0.60     1.92     8.35     0  01:54        1.92
  YS02001647           JUNCTION     0.40     1.84     8.45     0  01:56        1.84
  YS02001649           JUNCTION     0.46     2.05     8.44     0  01:56        2.05
  YS02001652           JUNCTION     0.34     2.14     8.74     0  01:54        1.98
  YS02001655           JUNCTION     0.27     2.20     9.05     0  01:54        1.86
  YS02001658           JUNCTION     0.20     1.72     8.86     0  01:55        1.69
  YS02001661           JUNCTION     0.20     1.55     8.96     0  02:01        1.55
  YS02001664           JUNCTION     0.08     1.15     9.08     0  02:01        1.15
  YS02001745           JUNCTION     0.10     1.07     8.59     0  02:01        1.07
  YS02001748           JUNCTION     0.19     1.67     8.74     0  01:56        1.46
  YS02001751           JUNCTION     0.23     1.62     8.50     0  02:01        1.62
  YS02001754           JUNCTION     0.31     1.84     8.45     0  02:01        1.84
  YS02001757           JUNCTION     0.47     2.13     8.39     0  02:01        2.13
  YS02001759           JUNCTION     0.42     2.15     8.51     0  02:01        2.15
  YS02001762           JUNCTION     0.41     2.10     8.50     0  02:01        2.10
  YS02001765           JUNCTION     0.39     2.05     8.50     0  02:06        2.03
  YS02001767           JUNCTION     0.39     2.00     8.49     0  02:06        1.98
  YS02001770           JUNCTION     0.40     1.95     8.44     0  01:54        1.95
  YS02001774           JUNCTION     0.46     2.00     8.42     0  01:58        2.00
  YS02001779           JUNCTION     0.29     1.68     8.37     0  01:54        1.68
  YS02001783           JUNCTION     0.30     1.38     7.52     0  01:53        1.25
  YS02001784           JUNCTION     0.31     1.19     7.26     0  01:53        1.13
  YS02001786           JUNCTION     0.25     0.99     7.02     0  01:53        0.88
  YS02001788           JUNCTION     0.18     0.63     6.61     0  02:00        0.62
  YS02001790           JUNCTION     0.21     0.73     6.38     0  01:58        0.73
  YS02001791           JUNCTION     0.13     0.44     5.91     0  01:58        0.43
  YS02001793           JUNCTION     0.07     0.28     5.12     0  02:01        0.27
  YS02001882           JUNCTION     0.38     1.73     8.45     0  01:53        1.73
  YS02001884           JUNCTION     0.46     1.83     8.44     0  01:53        1.83
  YS02001887           JUNCTION     0.54     1.90     8.44     0  02:01        1.90
  YS02001890           JUNCTION     0.57     1.81     8.32     0  01:53        1.81
  YS02001895           JUNCTION     0.35     1.57     8.31     0  02:06        1.56
  YS02001898           JUNCTION     0.35     1.59     8.32     0  01:56        1.59
  YS02001901           JUNCTION     0.46     1.68     8.29     0  01:56        1.68
  YS02001904           JUNCTION     0.44     1.64     8.27     0  01:59        1.64
  YS02001907           JUNCTION     0.75     1.96     8.25     0  01:53        1.96
  YS02001910           JUNCTION     0.56     2.02     8.53     0  01:54        2.01
  YS02001915           JUNCTION     0.39     2.00     8.72     0  01:59        2.00
  YS02001918           JUNCTION     0.24     1.81     8.88     0  01:53        1.72
  YS02001920           JUNCTION     0.32     2.14     9.15     0  01:54        1.81
  YS02001923           JUNCTION     0.19     2.03     9.29     0  01:54        1.60
  YS02001926           JUNCTION     0.22     1.90     9.35     0  01:54        1.45
  YS02001929           JUNCTION     0.13     1.78     9.47     0  01:54        1.24
  YS02006553           JUNCTION     0.75     2.00     8.28     0  02:00        1.99
  YS02006556           JUNCTION     0.72     2.01     8.32     0  02:00        1.99
  YS02006558           JUNCTION     0.77     2.08     8.34     0  02:00        2.06
  YS02006561           JUNCTION     0.19     1.20     7.86     0  01:53        0.92
  YS02163301           JUNCTION     0.59     1.96     8.48     0  01:56        1.96
  YS02163601           JUNCTION     0.67     2.08     8.48     0  01:56        2.08
  YS02164001           JUNCTION     0.60     2.02     8.47     0  01:56        2.02
  CC-1                 OUTFALL      0.00     0.00     0.00     0  00:00        0.00
  CC-2                 OUTFALL      0.00     0.00     0.00     0  00:00        0.00
  JK-1                 OUTFALL      0.00     0.00     0.00     0  00:00        0.00
  JK-2                 OUTFALL      0.00     0.00     0.00     0  00:00        0.00
  WSC                  OUTFALL      0.17     0.30     0.97     0  02:34        0.30
  CC-storage           STORAGE      0.83     1.75     7.25     0  02:34        1.75
  JK-storage           STORAGE      1.51     4.24     5.04     0  02:15        4.24
  
  
  *******************
  Node Inflow Summary
  *******************
  
  -------------------------------------------------------------------------------------------------
                                  Maximum  Maximum                  Lateral       Total        Flow
                                  Lateral    Total  Time of Max      Inflow      Inflow     Balance
                                   Inflow   Inflow   Occurrence      Volume      Volume       Error
  Node                 Type           LPS      LPS  days hr:min    10^6 ltr    10^6 ltr     Percent
  -------------------------------------------------------------------------------------------------
  WS02003060           JUNCTION     16.53   557.93     0  02:34       0.476        4.71       0.052
  WS02003066           JUNCTION      0.00   540.92     0  02:32           0        4.23       0.034
  WS02003067           JUNCTION      0.00   540.87     0  02:31           0        4.24       0.100
  WS02003069           JUNCTION      0.32   557.87     0  02:32     0.00922        4.71       0.089
  WS02003072           JUNCTION      0.00   557.63     0  02:33           0        4.71       0.155
  WS02003073           JUNCTION      1.82   559.27     0  02:34      0.0524        4.76       0.126
  WS02004401           JUNCTION      0.00   540.43     0  02:20           0        4.33       0.240
  WS02004402           JUNCTION      0.00   542.07     0  02:26           0        4.32       0.242
  WS02004403           JUNCTION      0.00   542.82     0  02:27           0        4.31       0.235
  WS02004404           JUNCTION      0.16   563.89     0  02:27     0.00467        4.31       0.099
  WS02004405           JUNCTION      0.04   608.91     0  02:26      0.0011         4.3       0.249
  WS02004406           JUNCTION      0.00   548.13     0  02:32           0        4.29       0.490
  WS02004407           JUNCTION      0.00   542.96     0  02:30           0        4.27       0.028
  WS02004409           JUNCTION      0.00   542.37     0  02:30           0        4.27       0.065
  WS02004410           JUNCTION      0.00   541.61     0  02:31           0        4.27       0.107
  WS02004411           JUNCTION      0.00   541.37     0  02:31           0        4.26       0.135
  WS02004412           JUNCTION      0.00   541.19     0  02:33           0        4.26       0.180
  WS02004413           JUNCTION      0.00   541.05     0  02:33           0        4.25       0.324
  WS02006109           JUNCTION      1.23   551.99     0  02:46      0.0354        4.38       0.159
  WS02006110           JUNCTION      0.00   553.58     0  02:46           0        4.37       0.158
  WS02006111           JUNCTION      0.00   561.03     0  02:48           0        4.37       0.017
  WS02006112           JUNCTION      0.00   543.20     0  02:07           0        4.37       0.431
  WS02006113           JUNCTION      0.00   565.04     0  02:46           0        4.37       0.041
  WS02006115           JUNCTION      0.00   552.82     0  03:01           0        4.35       0.160
  WS02006116           JUNCTION      0.00   542.97     0  02:31           0        4.34       0.118
  WS02006228           JUNCTION      0.00   551.08     0  02:46           0        4.35       0.083
  WS02006229           JUNCTION      0.00   550.95     0  02:46           0        4.36       0.123
  WS02006230           JUNCTION     10.28   586.84     0  03:00       0.296        4.36       0.129
  WS02006231           JUNCTION      0.00   573.27     0  03:00           0        4.06      -0.016
  WS02006232           JUNCTION      0.00   572.41     0  03:00           0        4.07       0.190
  WS02006234           JUNCTION      0.00   567.93     0  02:45           0        4.06      -0.364
  WS02006235           JUNCTION      0.00   561.03     0  02:45           0        4.19       0.398
  WS02006238           JUNCTION      0.00   427.39     0  03:31           0        3.27      -0.251
  WS02006239           JUNCTION      0.00   427.19     0  03:31           0        3.18      -0.193
  WS02006240           JUNCTION      0.00   426.66     0  03:31           0        3.14      -0.036
  WS02006242           JUNCTION      0.00   425.88     0  03:31           0        3.13      -0.048
  WS02006243           JUNCTION      0.00   425.18     0  03:31           0        3.11      -0.221
  WS02006245           JUNCTION      0.00   424.09     0  03:31           0        3.12       0.478
  WS02006247           JUNCTION      0.00   424.55     0  03:31           0        3.12      -0.033
  WS02006248           JUNCTION      0.00   424.71     0  03:31           0        3.11      -0.046
  WS02006249           JUNCTION      0.00   470.22     0  01:35           0        3.38       0.581
  WS02006251           JUNCTION      0.08   405.66     0  02:02     0.00222        3.39       0.032
  WS02006252           JUNCTION      0.00   400.00     0  00:00           0        3.37      -0.404
  WS02006256           JUNCTION      0.00   300.00     0  00:00           0        1.37      -2.288
  WSF200               JUNCTION      0.00   540.96     0  02:34           0        4.23       0.012
  YS02001580           JUNCTION      0.00   106.61     0  01:50           0     0.00411      -3.047
  YS02001583           JUNCTION      0.00   152.37     0  01:50           0      0.0152      -4.608
  YS02001586           JUNCTION   1201.28  1201.28     0  02:03        2.41        2.42       0.047
  YS02001590           JUNCTION      0.00   318.00     0  01:56           0        1.53      -0.030
  YS02001593           JUNCTION      0.00   317.97     0  01:56           0        1.53       0.005
  YS02001596           JUNCTION      0.00   317.91     0  02:09           0        1.53      -0.005
  YS02001600           JUNCTION      0.00   317.98     0  02:29           0        1.53       0.009
  YS02001601           JUNCTION   2158.58  2476.23     0  02:02        3.26        4.78       0.014
  YS02001602           JUNCTION      0.00   516.11     0  01:49           0        2.46       0.016
  YS02001605           JUNCTION      0.00   515.59     0  01:49           0        2.31       0.023
  YS02001607           JUNCTION      0.00   514.72     0  01:49           0        2.31       0.081
  YS02001610           JUNCTION      0.00   954.91     0  02:07           0        2.91       0.072
  YS02001613           JUNCTION      0.00   618.37     0  02:07           0        2.26       0.066
  YS02001616           JUNCTION      0.00   620.20     0  02:06           0        2.26       0.019
  YS02001619           JUNCTION   2154.00  2154.00     0  02:03        3.87        5.52      -0.005
  YS02001622           JUNCTION      0.00  1053.94     0  02:04           0        4.74      -0.002
  YS02001625           JUNCTION      0.00  1505.17     0  02:09           0        5.14       0.176
  YS02001629           JUNCTION      0.00   930.36     0  01:53           0        3.83       0.002
  YS02001633           JUNCTION   1626.21  1626.21     0  02:02        2.39        5.62       0.060
  YS02001641           JUNCTION      0.00  1390.70     0  01:53           0        5.03       0.053
  YS02001644           JUNCTION   1457.40  2608.73     0  02:02        2.08        7.18       0.042
  YS02001647           JUNCTION      0.00  1809.59     0  01:53           0        5.84       0.004
  YS02001649           JUNCTION      0.00  2065.15     0  01:53           0        7.68      -0.001
  YS02001652           JUNCTION      0.00  1439.18     0  02:01           0        1.92      -0.054
  YS02001655           JUNCTION      0.15  1440.24     0  02:01     0.00443        1.92       0.006
  YS02001658           JUNCTION      0.00  1440.17     0  02:01           0        1.91      -0.033
  YS02001661           JUNCTION      0.00  1441.22     0  02:01           0        1.91      -0.000
  YS02001664           JUNCTION   1426.86  1426.86     0  02:02        1.91        1.91      -0.009
  YS02001745           JUNCTION    906.33   906.33     0  02:01        1.14        1.14       0.134
  YS02001748           JUNCTION      0.04   923.71     0  02:01      0.0013        1.14      -0.232
  YS02001751           JUNCTION      0.01   922.78     0  02:01    0.000317        1.15       0.078
  YS02001754           JUNCTION      0.26   922.24     0  02:01     0.00749        1.16      -0.111
  YS02001757           JUNCTION      0.00  3504.28     0  01:57           0          12       0.038
  YS02001759           JUNCTION   1260.92  1482.71     0  02:00        1.59        3.27      -0.009
  YS02001762           JUNCTION      0.00   759.54     0  01:56           0        1.69      -0.004
  YS02001765           JUNCTION      0.00   759.53     0  01:56           0        1.69       0.003
  YS02001767           JUNCTION      0.54   760.90     0  01:56      0.0154        1.69      -0.000
  YS02001770           JUNCTION   1776.18  1776.18     0  02:02         2.4        2.45      -0.016
  YS02001774           JUNCTION      0.00   851.95     0  02:05           0       0.616       0.193
  YS02001779           JUNCTION      0.01   851.69     0  02:05    0.000144       0.573      -0.038
  YS02001783           JUNCTION      0.00  1181.86     0  02:01           0        4.56       0.004
  YS02001784           JUNCTION      1.06  1182.27     0  02:00      0.0305        4.59       0.010
  YS02001786           JUNCTION      0.06  1182.74     0  02:00     0.00162        4.59       0.015
  YS02001788           JUNCTION      0.07  1184.24     0  02:00     0.00204        4.59       0.007
  YS02001790           JUNCTION      0.15  1190.41     0  02:00     0.00446        4.59       0.025
  YS02001791           JUNCTION      0.00  1306.84     0  01:58           0        4.59      -0.037
  YS02001793           JUNCTION      0.00  1240.60     0  02:01           0        4.59       0.005
  YS02001882           JUNCTION      0.00    47.92     0  01:51           0      0.0131       4.998
  YS02001884           JUNCTION      0.00    74.16     0  01:51           0       0.049       5.131
  YS02001887           JUNCTION   1371.00  1372.30     0  02:01        1.64        1.68       0.257
  YS02001890           JUNCTION      0.00  1372.92     0  02:01           0        1.64       0.307
  YS02001895           JUNCTION      0.00   518.55     0  02:06           0        1.28       0.123
  YS02001898           JUNCTION      0.00   517.66     0  02:05           0        1.27      -0.008
  YS02001901           JUNCTION      0.00   517.83     0  02:05           0        1.28       0.250
  YS02001904           JUNCTION      0.00   517.40     0  02:05           0        1.28       0.205
  YS02001907           JUNCTION      0.00  3156.22     0  02:02           0        4.98       0.344
  YS02001910           JUNCTION      0.00  1993.18     0  02:02           0         3.5       0.202
  YS02001915           JUNCTION   1570.28  2329.06     0  02:02        2.29        3.61       0.037
  YS02001918           JUNCTION      0.00   762.27     0  02:03           0        1.35       0.000
  YS02001920           JUNCTION      2.87   762.50     0  02:02      0.0827        1.34       0.075
  YS02001923           JUNCTION      0.04   758.84     0  02:02     0.00109        1.24      -0.028
  YS02001926           JUNCTION      0.05   759.73     0  02:03      0.0015        1.22      -0.019
  YS02001929           JUNCTION    758.68   758.68     0  02:03         1.2        1.21      -0.024
  YS02006553           JUNCTION      0.00   802.40     0  02:23           0        2.59       0.462
  YS02006556           JUNCTION      0.00   801.85     0  02:23           0        2.59       0.303
  YS02006558           JUNCTION   1820.67  1820.67     0  02:02        2.41        4.78       0.075
  YS02006561           JUNCTION      0.00  1182.19     0  02:01           0        4.56      -0.001
  YS02163301           JUNCTION      0.00   929.77     0  01:53           0        3.83       0.036
  YS02163601           JUNCTION      0.11  1390.74     0  01:53     0.00317        5.02       0.096
  YS02164001           JUNCTION      0.00  1390.62     0  01:53           0        5.02       0.041
  CC-1                 OUTFALL       0.00   683.00     0  00:00           0        5.15       0.000
  CC-2                 OUTFALL       0.00   683.00     0  00:00           0        4.37       0.000
  JK-1                 OUTFALL       0.00  1000.00     0  00:00           0        1.17       0.000
  JK-2                 OUTFALL       0.00  1000.00     0  00:00           0        2.17       0.000
  WSC                  OUTFALL       0.00   559.10     0  02:34           0        4.75       0.000
  CC-storage           STORAGE       0.00  3504.35     0  01:57           0        14.2      -0.222
  JK-storage           STORAGE       0.00  1254.55     0  01:56           0        4.74      -0.346
  
  
  **********************
  Node Surcharge Summary
  **********************
  
  Surcharging occurs when water rises above the top of the highest conduit.
  ---------------------------------------------------------------------
                                               Max. Height   Min. Depth
                                   Hours       Above Crown    Below Rim
  Node                 Type      Surcharged         Meters       Meters
  ---------------------------------------------------------------------
  WS02004404           JUNCTION        0.08          0.054        2.726
  WS02006109           JUNCTION        1.82          0.255        1.565
  WS02006110           JUNCTION        0.93          0.202        1.648
  WS02006112           JUNCTION        0.98          0.094        1.586
  WS02006228           JUNCTION        1.82          0.263        1.937
  WS02006229           JUNCTION        1.82          0.319        2.131
  WS02006230           JUNCTION        0.94          0.187        1.383
  WS02006231           JUNCTION        0.98          0.353        1.177
  WS02006232           JUNCTION        1.84          0.586        0.894
  WS02006234           JUNCTION        1.14          0.456        0.784
  WS02006235           JUNCTION        1.80          0.542        0.748
  WS02006238           JUNCTION        1.82          0.601        0.829
  WS02006239           JUNCTION        1.81          0.634        0.656
  WS02006240           JUNCTION        1.81          0.661        0.729
  WS02006242           JUNCTION        1.83          0.715        0.105
  WS02006243           JUNCTION        1.81          0.610        0.160
  WS02006245           JUNCTION        1.81          0.550        0.300
  WS02006247           JUNCTION        1.81          0.514        0.246
  WS02006248           JUNCTION        1.80          0.380        0.000
  WS02006249           JUNCTION        1.80          0.390        0.000
  WS02006251           JUNCTION        1.01          0.304        0.876
  WS02006252           JUNCTION        2.16          1.100        0.000
  WS02006256           JUNCTION        6.78          2.050        0.000
  YS02001580           JUNCTION        0.81          0.450        0.000
  YS02001583           JUNCTION        0.82          0.387        0.113
  YS02001586           JUNCTION        0.93          0.510        0.000
  YS02001590           JUNCTION        1.01          0.739        0.011
  YS02001593           JUNCTION        1.02          0.676        0.164
  YS02001596           JUNCTION        1.13          0.939        0.131
  YS02001600           JUNCTION        1.30          1.189        0.001
  YS02001601           JUNCTION        1.58          1.440        0.000
  YS02001602           JUNCTION        1.49          1.270        0.000
  YS02001605           JUNCTION        1.45          1.180        0.000
  YS02001607           JUNCTION        1.00          0.655        0.025
  YS02001610           JUNCTION        1.03          0.680        0.000
  YS02001613           JUNCTION        1.00          0.679        0.021
  YS02001616           JUNCTION        0.95          0.610        0.000
  YS02001619           JUNCTION        0.94          0.610        0.000
  YS02001622           JUNCTION        0.94          0.620        0.000
  YS02001625           JUNCTION        1.13          0.780        0.000
  YS02001629           JUNCTION        0.89          0.470        0.000
  YS02001633           JUNCTION        1.16          1.060        0.000
  YS02001641           JUNCTION        1.11          0.997        0.103
  YS02001644           JUNCTION        1.08          0.920        0.000
  YS02001647           JUNCTION        0.85          0.838        0.062
  YS02001649           JUNCTION        0.99          1.050        0.000
  YS02001652           JUNCTION        0.78          1.110        0.020
  YS02001655           JUNCTION        0.59          1.200        0.000
  YS02001658           JUNCTION        0.35          0.720        0.580
  YS02001661           JUNCTION        0.16          0.484        0.906
  YS02001664           JUNCTION        0.01          0.154        1.156
  YS02001745           JUNCTION        0.02          0.073        1.277
  YS02001748           JUNCTION        0.29          0.586        0.604
  YS02001751           JUNCTION        0.45          0.616        0.584
  YS02001754           JUNCTION        0.68          0.790        0.360
  YS02001757           JUNCTION        1.07          1.133        0.077
  YS02001759           JUNCTION        0.97          1.145        0.065
  YS02001762           JUNCTION        0.93          1.096        0.054
  YS02001765           JUNCTION        0.88          1.053        0.047
  YS02001767           JUNCTION        0.85          0.998        0.032
  YS02001770           JUNCTION        0.81          0.920        0.000
  YS02001774           JUNCTION        0.90          1.003        0.047
  YS02001779           JUNCTION        0.68          0.680        0.000
  YS02001783           JUNCTION        0.68          0.580        1.020
  YS02001784           JUNCTION        0.65          0.391        1.099
  YS02001786           JUNCTION        0.54          0.194        1.236
  YS02001882           JUNCTION        0.62          0.731        0.099
  YS02001884           JUNCTION        0.63          0.765        0.105
  YS02001887           JUNCTION        0.67          0.849        0.101
  YS02001890           JUNCTION        0.68          0.760        0.000
  YS02001895           JUNCTION        0.61          0.567        0.183
  YS02001898           JUNCTION        0.60          0.557        0.183
  YS02001901           JUNCTION        0.65          0.681        0.189
  YS02001904           JUNCTION        0.64          0.638        0.212
  YS02001907           JUNCTION        0.90          0.950        0.000
  YS02001910           JUNCTION        0.71          1.018        0.082
  YS02001915           JUNCTION        0.62          1.000        0.000
  YS02001918           JUNCTION        0.53          0.810        0.000
  YS02001920           JUNCTION        0.54          1.140        0.000
  YS02001923           JUNCTION        0.24          0.820        0.000
  YS02001926           JUNCTION        0.26          0.900        0.000
  YS02001929           JUNCTION        0.14          0.780        0.000
  YS02006553           JUNCTION        0.92          0.997        0.193
  YS02006556           JUNCTION        0.81          0.972        0.378
  YS02006558           JUNCTION        0.79          0.977        0.423
  YS02006561           JUNCTION        0.50          0.401        0.749
  YS02163301           JUNCTION        1.14          0.959        0.071
  YS02163601           JUNCTION        1.20          1.080        0.000
  YS02164001           JUNCTION        1.11          1.015        0.085
  
  
  *********************
  Node Flooding Summary
  *********************
  
  Flooding refers to all water that overflows a node, whether it ponds or not.
  --------------------------------------------------------------------------
                                                             Total   Maximum
                                 Maximum   Time of Max       Flood    Ponded
                        Hours       Rate    Occurrence      Volume     Depth
  Node                 Flooded       LPS   days hr:min    10^6 ltr    Meters
  --------------------------------------------------------------------------
  WS02006248              0.01      3.22      0  03:01       0.000     0.000
  WS02006249              0.99     89.31      0  02:02       0.249     0.000
  WS02006252              0.01    245.63      0  00:00       0.000     0.000
  WS02006256              1.27    293.19      0  00:00       0.443     0.000
  YS02001580              0.01     84.18      0  01:50       0.000     0.000
  YS02001586              0.67    883.79      0  02:03       0.880     0.000
  YS02001601              0.85   2078.05      0  02:02       2.319     0.000
  YS02001602              0.74     62.45      0  02:06       0.153     0.000
  YS02001605              0.01      0.19      0  01:56       0.000     0.000
  YS02001610              0.66    954.32      0  02:08       1.255     0.000
  YS02001616              0.07      3.59      0  02:06       0.000     0.000
  YS02001619              0.17    494.85      0  02:03       0.173     0.000
  YS02001622              0.01      0.79      0  02:06       0.000     0.000
  YS02001625              0.62   1504.96      0  02:09       1.891     0.000
  YS02001629              0.24    455.44      0  02:02       0.212     0.000
  YS02001633              0.01      1.52      0  01:56       0.000     0.000
  YS02001644              0.32   2608.04      0  02:02       1.408     0.000
  YS02001649              0.01      4.75      0  02:01       0.000     0.000
  YS02001655              0.01    320.64      0  01:54       0.000     0.000
  YS02001770              0.12    725.75      0  02:02       0.176     0.000
  YS02001779              0.28    851.42      0  02:05       0.556     0.000
  YS02001890              0.28    856.22      0  02:01       0.355     0.000
  YS02001907              0.47   3155.49      0  02:02       2.580     0.000
  YS02001915              0.10    336.15      0  02:02       0.071     0.000
  YS02001918              0.01    113.92      0  01:54       0.001     0.000
  YS02001920              0.01      9.37      0  01:54       0.000     0.000
  YS02001923              0.01    223.72      0  01:54       0.000     0.000
  YS02001926              0.01    350.66      0  01:54       0.001     0.000
  YS02001929              0.01    276.34      0  01:54       0.001     0.000
  YS02163601              0.01      1.35      0  01:56       0.000     0.000
  
  
  **********************
  Storage Volume Summary
  **********************
  
  ------------------------------------------------------------------------------------------------
                         Average    Avg   Evap  Exfil     Maximum    Max    Time of Max    Maximum
                          Volume   Pcnt   Pcnt   Pcnt      Volume   Pcnt     Occurrence    Outflow
  Storage Unit           1000 m³   Full   Loss   Loss     1000 m³   Full    days hr:min        LPS
  ------------------------------------------------------------------------------------------------
  CC-storage               2.312   36.1    0.0    0.0       4.880   76.1       0  02:34    1783.53
  JK-storage               0.076   26.0    0.0    0.0       0.213   73.0       0  02:15    2300.00
  
  
  ***********************
  Outfall Loading Summary
  ***********************
  
  -----------------------------------------------------------
                         Flow       Avg       Max       Total
                         Freq      Flow      Flow      Volume
  Outfall Node           Pcnt       LPS       LPS    10^6 ltr
  -----------------------------------------------------------
  CC-1                  43.39    683.00    683.00       5.149
  CC-2                  36.91    683.00    683.00       4.368
  JK-1                   6.90   1000.00   1000.00       1.175
  JK-2                  11.82   1000.00   1000.00       2.173
  WSC                   99.94    227.06    559.10       4.749
  -----------------------------------------------------------
  System                39.79   3593.06   3923.93      17.615
  
  
  ********************
  Link Flow Summary
  ********************
  
  -----------------------------------------------------------------------------
                                 Maximum  Time of Max   Maximum    Max/    Max/
                                  |Flow|   Occurrence   |Veloc|    Full    Full
  Link                 Type          LPS  days hr:min     m/sec    Flow   Depth
  -----------------------------------------------------------------------------
  1                    CONDUIT    559.10     0  02:34      2.83    0.19    0.30
  WS02003060WS02003069 CONDUIT    557.55     0  02:32      1.64    0.22    0.34
  WS02003066WSF200     CONDUIT    540.96     0  02:34      2.86    0.09    0.22
  WS02003067WS02003066 CONDUIT    540.92     0  02:32      1.21    0.17    0.42
  WS02003069WS02003072 CONDUIT    557.63     0  02:33      1.37    0.27    0.39
  WS02003072WS02003073 CONDUIT    557.45     0  02:34      1.44    1.20    0.37
  WS02004401WS02004402 CONDUIT    542.07     0  02:26      1.07    0.65    0.89
  WS02004402WS02004403 CONDUIT    542.82     0  02:27      1.08    0.78    0.91
  WS02004403WS02004404 CONDUIT    563.73     0  02:27      1.06    0.41    0.96
  WS02004404WS02004405 CONDUIT    608.87     0  02:26      1.23    5.97    0.98
  WS02004405WS02004406 CONDUIT    548.13     0  02:32      1.20    1.08    0.96
  WS02004406WS02004407 CONDUIT    542.96     0  02:30      1.05    0.24    0.63
  WS02004407WS02004409 CONDUIT    542.37     0  02:30      1.53    0.19    0.48
  WS02004409WS02004410 CONDUIT    541.61     0  02:31      0.99    0.70    0.68
  WS02004410WS02004411 CONDUIT    541.37     0  02:31      0.94    0.74    0.69
  WS02004411WS02004412 CONDUIT    541.19     0  02:33      0.93    0.77    0.70
  WS02004412WS02004413 CONDUIT    541.05     0  02:33      0.90    0.36    0.78
  WS02004413WS02003067 CONDUIT    540.87     0  02:31      1.11    0.23    0.59
  WS02006109WS02006110 CONDUIT    553.58     0  02:46      1.10    1.06    1.00
  WS02006110WS02006113 CONDUIT    565.04     0  02:46      1.37    0.51    0.78
  WS02006111WS02006112 CONDUIT    543.20     0  02:07      1.84    0.26    0.67
  WS02006112WS02006115 CONDUIT    552.82     0  03:01      0.82    0.33    0.88
  WS02006113WS02006111 CONDUIT    561.03     0  02:48      2.46    0.67    0.46
  WS02006115WS02006116 CONDUIT    542.97     0  02:31      1.11    0.70    0.79
  WS02006116WS02004401 CONDUIT    540.43     0  02:20      1.07    0.74    0.87
  WS02006228WS02006109 CONDUIT    550.76     0  02:46      1.10    2.41    1.00
  WS02006229WS02006228 CONDUIT    551.08     0  02:46      1.11    1.83    1.00
  WS02006230WS02006229 CONDUIT    550.95     0  02:46      1.43   12.26    1.00
  WS02006231WS02006230 CONDUIT    576.56     0  03:00      1.57    8.75    1.00
  WS02006232WS02006231 CONDUIT    573.27     0  03:00      1.49    1.20    1.00
  WS02006234WS02006232 CONDUIT    572.41     0  03:00      1.49    1.16    1.00
  WS02006235WS02006234 CONDUIT    567.93     0  02:45      1.48    5.99    1.00
  WS02006238WS02006235 CONDUIT    426.29     0  02:55      1.45    0.95    1.00
  WS02006239WS02006238 CONDUIT    427.39     0  03:31      1.11    1.37    1.00
  WS02006240WS02006239 CONDUIT    427.19     0  03:31      1.24    1.34    1.00
  WS02006242WS02006240 CONDUIT    426.66     0  03:31      1.13    1.69    1.00
  WS02006243WS02006242 CONDUIT    425.88     0  03:31      1.40    0.91    1.00
  WS02006245WS02006243 CONDUIT    425.18     0  03:31      1.45    1.26    1.00
  WS02006247WS02006245 CONDUIT    424.09     0  03:31      1.43    3.36    1.00
  WS02006248WS02006247 CONDUIT    424.55     0  03:31      1.44    0.92    1.00
  WS02006249WS02006248 CONDUIT    424.71     0  03:31      1.38    2.33    1.00
  WS02006251WS02006249 CONDUIT    470.22     0  01:35      1.99    1.36    1.00
  WS02006252WS02006251 CONDUIT    405.58     0  02:02     25.69    1.49    1.00
  WS02006256WS02006235 CONDUIT    288.91     0  00:00      4.23    3.06    1.00
  WSF200WS02003060     CONDUIT    541.40     0  02:34      2.07    0.12    0.28
  YS02001580YS02001583 CONDUIT    106.61     0  01:50      0.61    0.41    1.00
  YS02001583YS02001586 CONDUIT    152.37     0  01:50      0.64    0.23    1.00
  YS02001586YS02001590 CONDUIT    318.00     0  01:56      1.25    0.56    1.00
  YS02001590YS02001593 CONDUIT    317.97     0  01:56      1.12    2.00    1.00
  YS02001593YS02001596 CONDUIT    317.91     0  02:09      1.75    0.50    1.00
  YS02001596YS02001600 CONDUIT    317.98     0  02:29      1.27    0.62    1.00
  YS02001600YS02001601 CONDUIT    317.89     0  02:20      1.12    0.55    1.00
  YS02001601YS02001602 CONDUIT    516.11     0  01:49      1.83    1.86    1.00
  YS02001602YS02001605 CONDUIT    515.59     0  01:49      1.82   10.91    1.00
  YS02001605YS02001607 CONDUIT    514.72     0  01:49      1.82    2.82    1.00
  YS02001607YS02001610 CONDUIT    516.52     0  01:49      0.66    0.49    1.00
  YS02001610YS02001613 CONDUIT    618.60     0  02:08      0.79    0.71    1.00
  YS02001613YS02001616 CONDUIT    618.37     0  02:07      0.79    0.53    1.00
  YS02001616YS02001619 CONDUIT    620.20     0  02:06      0.79    1.08    1.00
  YS02001619YS02001622 CONDUIT   1053.94     0  02:04      1.34    1.55    1.00
  YS02001622YS02001625 CONDUIT   1053.67     0  02:06      1.34    0.56    1.00
  YS02001625YS02001629 CONDUIT    930.36     0  01:53      1.18    0.44    1.00
  YS02001629YS02163301 CONDUIT    929.77     0  01:53      1.18    1.14    1.00
  YS02001633YS02163601 CONDUIT   1390.63     0  01:53      1.77    1.46    1.00
  YS02001641YS02001644 CONDUIT   1390.54     0  01:53      1.77    4.50    1.00
  YS02001644YS02001647 CONDUIT   1809.59     0  01:53      2.32    1.06    1.00
  YS02001647YS02001649 CONDUIT   1833.92     0  01:53      2.36    0.97    1.00
  YS02001649YS02001757 CONDUIT   2068.01     0  01:53      2.64    1.25    1.00
  YS02001652YS02001649 CONDUIT   1439.16     0  02:01      1.83    0.71    1.00
  YS02001655YS02001652 CONDUIT   1439.18     0  02:01      1.83    0.70    1.00
  YS02001658YS02001655 CONDUIT   1440.09     0  02:01      1.90    0.61    1.00
  YS02001661YS02001658 CONDUIT   1440.17     0  02:01      2.34    0.57    1.00
  YS02001664YS02001661 CONDUIT   1441.22     0  02:01      2.33    0.45    1.00
  YS02001745YS02001748 CONDUIT    923.67     0  02:01      2.19    0.36    1.00
  YS02001748YS02001751 CONDUIT    922.77     0  02:01      1.73    0.47    1.00
  YS02001751YS02001754 CONDUIT    921.98     0  02:01      1.44    0.44    1.00
  YS02001754YS02001757 CONDUIT    922.04     0  02:01      1.17    0.37    1.00
  YS02001757CaochengTiaoxuchi CONDUIT   3504.35     0  01:57      4.47    1.52    1.00
  YS02001759YS02001757 CONDUIT   1483.27     0  02:00      1.89    1.05    1.00
  YS02001762YS02001759 CONDUIT    761.17     0  01:56      0.97    0.88    1.00
  YS02001765YS02001762 CONDUIT    759.54     0  01:56      0.97    0.71    1.00
  YS02001767YS02001765 CONDUIT    759.53     0  01:56      0.97    0.96    1.00
  YS02001770YS02001767 CONDUIT    760.37     0  01:56      0.97    3.01    1.00
  YS02001774YS02001770 CONDUIT    851.95     0  02:05      1.08    0.54    1.00
  YS02001779YS02001774 CONDUIT    851.68     0  02:05      1.08    0.43    1.00
  YS02001783YS02001784 CONDUIT   1181.21     0  02:00      2.35    1.63    1.00
  YS02001784YS02001785 CONDUIT   1182.68     0  02:00      2.35    2.75    1.00
  YS02001786YS02001788 CONDUIT   1184.17     0  02:00      2.51    2.28    0.89
  YS02001788YS02001790 CONDUIT   1190.26     0  02:00      2.72    0.88    0.85
  YS02001790YS02001791 CONDUIT   1306.84     0  01:58      3.44    1.42    0.71
  YS02001791YS02001793 CONDUIT   1240.60     0  02:01      6.77    0.53    0.44
  YS02001793JiankangQianchi CONDUIT   1254.55     0  01:56      2.51    0.10    0.64
  YS02001882YS02001884 CONDUIT     47.92     0  01:51      0.14    0.05    1.00
  YS02001884YS02001887 CONDUIT     74.16     0  01:51      0.10    0.10    1.00
  YS02001887YS02001890 CONDUIT   1372.92     0  02:01      1.75    2.35    1.00
  YS02001890YS02001895 CONDUIT    518.55     0  02:06      0.66    0.24    1.00
  YS02001895YS02001898 CONDUIT    517.66     0  02:05      0.66    0.90    1.00
  YS02001898YS02001901 CONDUIT    517.83     0  02:05      0.66    0.33    1.00
  YS02001901YS02001904 CONDUIT    517.40     0  02:05      0.66    0.80    1.00
  YS02001904YS02001907 CONDUIT    517.87     0  02:06      0.66    0.18    1.00
  YS02001907YS02006553 CONDUIT    802.40     0  02:23      0.89    0.94    1.00
  YS02001910YS02001907 CONDUIT   1993.02     0  02:02      2.54    1.12    1.00
  YS02001915YS02001910 CONDUIT   1993.18     0  02:02      2.54    0.99    1.00
  YS02001918YS02001915 CONDUIT    761.61     0  02:03      0.97    0.42    1.00
  YS02001920YS02001918 CONDUIT    762.27     0  02:03      0.97    0.74    1.00
  YS02001923YS02001920 CONDUIT    759.63     0  02:02      0.97    0.34    1.00
  YS02001926YS02001923 CONDUIT    758.81     0  02:02      0.97    1.08    1.00
  YS02001929YS02001926 CONDUIT    759.68     0  02:03      1.12    0.36    1.00
  YS02006553YS02006556 CONDUIT    801.85     0  02:23      1.02    0.69    1.00
  YS02006556YS02006558 CONDUIT    802.21     0  02:23      1.02    0.63    1.00
  YS02006558YS02006561 CONDUIT   1182.19     0  02:01      4.18    2.61    1.00
  YS02006561YS02001783 CONDUIT   1181.86     0  02:01      2.35    0.61    1.00
  YS02163301YS02001633 CONDUIT    929.93     0  01:53      1.18    0.87    1.00
  YS02163601YS02164001 CONDUIT   1390.62     0  01:53      1.77    1.23    1.00
  YS02164001YS02001641 CONDUIT   1390.70     0  01:53      1.77    1.90    1.00
  CC-R1                PUMP       683.00     0  00:00              1.00
  CC-R2                PUMP       683.00     0  00:00              1.00
  CC-S1                PUMP       200.00     0  00:00              1.00
  CC-S2                PUMP       200.00     0  00:00              1.00
  JK-R1                PUMP      1000.00     0  00:00              1.00
  JK-R2                PUMP      1000.00     0  00:00              1.00
  JK-S                 PUMP       300.00     0  00:00              1.00
  
  
  ***************************
  Flow Classification Summary
  ***************************
  
  -------------------------------------------------------------------------------------
                      Adjusted    ---------- Fraction of Time in Flow Class ---------- 
                       /Actual         Up    Down  Sub   Sup   Up    Down  Norm  Inlet 
  Conduit               Length    Dry  Dry   Dry   Crit  Crit  Crit  Crit  Ltd   Ctrl  
  -------------------------------------------------------------------------------------
  1                       1.00   0.00  0.00  0.00  0.00  1.00  0.00  0.00  0.35  0.00
  WS02003060WS02003069    1.00   0.00  0.00  0.00  0.97  0.03  0.00  0.00  0.72  0.00
  WS02003066WSF200        1.00   0.06  0.00  0.00  0.00  0.94  0.00  0.00  0.81  0.00
  WS02003067WS02003066    1.00   0.06  0.01  0.00  0.94  0.00  0.00  0.00  0.00  0.00
  WS02003069WS02003072    1.00   0.00  0.00  0.00  0.99  0.01  0.00  0.00  0.75  0.00
  WS02003072WS02003073    1.00   0.00  0.00  0.00  0.00  0.00  0.00  1.00  0.00  0.00
  WS02004401WS02004402    1.00   0.02  0.00  0.00  0.98  0.00  0.00  0.00  0.00  0.00
  WS02004402WS02004403    1.00   0.02  0.00  0.00  0.97  0.00  0.00  0.00  0.00  0.00
  WS02004403WS02004404    1.00   0.00  0.03  0.00  0.97  0.00  0.00  0.00  0.00  0.00
  WS02004404WS02004405    1.00   0.00  0.00  0.00  1.00  0.00  0.00  0.00  0.01  0.00
  WS02004405WS02004406    1.00   0.00  0.00  0.00  1.00  0.00  0.00  0.00  0.00  0.00
  WS02004406WS02004407    1.00   0.00  0.04  0.00  0.96  0.00  0.00  0.00  0.00  0.00
  WS02004407WS02004409    1.00   0.04  0.00  0.00  0.95  0.01  0.00  0.00  0.96  0.00
  WS02004409WS02004410    1.00   0.04  0.00  0.00  0.96  0.00  0.00  0.00  0.00  0.00
  WS02004410WS02004411    1.00   0.04  0.00  0.00  0.96  0.00  0.00  0.00  0.00  0.00
  WS02004411WS02004412    1.00   0.04  0.00  0.00  0.96  0.00  0.00  0.00  0.00  0.00
  WS02004412WS02004413    1.00   0.04  0.00  0.00  0.95  0.00  0.00  0.00  0.00  0.00
  WS02004413WS02003067    1.00   0.04  0.01  0.00  0.00  0.00  0.94  0.00  0.00  0.00
  WS02006109WS02006110    1.00   0.00  0.01  0.00  0.98  0.00  0.01  0.00  0.00  0.00
  WS02006110WS02006113    1.00   0.01  0.01  0.00  0.98  0.00  0.00  0.00  0.00  0.00
  WS02006111WS02006112    1.00   0.02  0.00  0.00  0.98  0.00  0.00  0.00  0.98  0.00
  WS02006112WS02006115    1.00   0.02  0.00  0.00  0.97  0.00  0.00  0.00  0.00  0.00
  WS02006113WS02006111    1.00   0.02  0.00  0.00  0.00  0.98  0.00  0.00  0.12  0.00
  WS02006115WS02006116    1.00   0.02  0.00  0.00  0.97  0.00  0.00  0.01  0.00  0.00
  WS02006116WS02004401    1.00   0.02  0.00  0.00  0.98  0.00  0.00  0.00  0.00  0.00
  WS02006228WS02006109    1.00   0.00  0.00  0.00  1.00  0.00  0.00  0.00  0.00  0.00
  WS02006229WS02006228    1.00   0.00  0.00  0.00  0.99  0.00  0.00  0.01  0.00  0.00
  WS02006230WS02006229    1.00   0.00  0.00  0.00  0.99  0.00  0.00  0.01  0.03  0.00
  WS02006231WS02006230    1.00   0.00  0.00  0.00  0.24  0.00  0.76  0.00  0.00  0.00
  WS02006232WS02006231    1.00   0.00  0.00  0.00  0.99  0.00  0.01  0.00  0.00  0.00
  WS02006234WS02006232    1.00   0.00  0.00  0.00  1.00  0.00  0.00  0.00  0.03  0.00
  WS02006235WS02006234    1.00   0.00  0.00  0.00  0.93  0.00  0.07  0.00  0.00  0.00
  WS02006238WS02006235    1.00   0.00  0.00  0.00  1.00  0.00  0.00  0.00  0.00  0.00
  WS02006239WS02006238    1.00   0.00  0.00  0.00  1.00  0.00  0.00  0.00  0.15  0.00
  WS02006240WS02006239    1.00   0.00  0.00  0.00  0.67  0.00  0.00  0.33  0.04  0.00
  WS02006242WS02006240    1.00   0.00  0.00  0.00  0.99  0.00  0.01  0.00  0.00  0.00
  WS02006243WS02006242    1.00   0.00  0.00  0.00  0.99  0.00  0.00  0.01  0.61  0.00
  WS02006245WS02006243    1.00   0.00  0.00  0.00  0.80  0.00  0.00  0.20  0.01  0.00
  WS02006247WS02006245    1.00   0.00  0.00  0.00  0.96  0.00  0.00  0.04  0.00  0.00
  WS02006248WS02006247    1.00   0.00  0.00  0.00  0.98  0.00  0.00  0.02  0.58  0.00
  WS02006249WS02006248    1.00   0.00  0.00  0.00  0.41  0.00  0.59  0.00  0.00  0.00
  WS02006251WS02006249    1.00   0.00  0.00  0.00  0.99  0.01  0.00  0.00  0.60  0.00
  WS02006252WS02006251    1.00   0.00  0.41  0.00  0.13  0.00  0.46  0.00  0.00  0.00
  WS02006256WS02006235    1.00   0.00  0.00  0.00  0.98  0.02  0.00  0.00  0.01  0.00
  WSF200WS02003060        1.00   0.00  0.06  0.00  0.46  0.48  0.00  0.00  0.67  0.00
  YS02001580YS02001583    1.00   0.23  0.56  0.00  0.22  0.00  0.00  0.00  0.65  0.00
  YS02001583YS02001586    1.00   0.41  0.31  0.00  0.27  0.00  0.00  0.00  0.65  0.00
  YS02001586YS02001590    1.00   0.13  0.00  0.00  0.44  0.04  0.00  0.39  0.35  0.00
  YS02001590YS02001593    1.00   0.13  0.01  0.00  0.14  0.00  0.72  0.00  0.00  0.00
  YS02001593YS02001596    1.00   0.13  0.00  0.00  0.16  0.01  0.00  0.70  0.02  0.00
  YS02001596YS02001600    1.00   0.13  0.00  0.00  0.21  0.01  0.00  0.64  0.04  0.00
  YS02001600YS02001601    1.00   0.13  0.01  0.00  0.86  0.00  0.00  0.00  0.59  0.00
  YS02001601YS02001602    1.00   0.13  0.01  0.00  0.87  0.00  0.00  0.00  0.00  0.00
  YS02001602YS02001605    1.00   0.13  0.00  0.00  0.87  0.00  0.00  0.00  0.00  0.00
  YS02001605YS02001607    1.00   0.14  0.00  0.00  0.86  0.00  0.00  0.00  0.00  0.00
  YS02001607YS02001610    1.00   0.13  0.01  0.00  0.86  0.00  0.00  0.00  0.01  0.00
  YS02001610YS02001613    1.00   0.13  0.00  0.00  0.87  0.00  0.00  0.00  0.00  0.00
  YS02001613YS02001616    1.00   0.13  0.00  0.00  0.87  0.00  0.00  0.00  0.00  0.00
  YS02001616YS02001619    1.00   0.13  0.00  0.00  0.87  0.00  0.00  0.00  0.00  0.00
  YS02001619YS02001622    1.00   0.13  0.00  0.00  0.87  0.00  0.00  0.00  0.28  0.00
  YS02001622YS02001625    1.00   0.13  0.00  0.00  0.87  0.00  0.00  0.00  0.04  0.00
  YS02001625YS02001629    1.00   0.13  0.04  0.00  0.18  0.00  0.64  0.00  0.00  0.00
  YS02001629YS02163301    1.00   0.15  0.01  0.00  0.84  0.00  0.00  0.00  0.00  0.00
  YS02001633YS02163601    1.00   0.00  0.01  0.00  0.99  0.00  0.00  0.00  0.15  0.00
  YS02001641YS02001644    1.00   0.00  0.01  0.00  0.99  0.00  0.00  0.00  0.00  0.00
  YS02001644YS02001647    1.00   0.00  0.17  0.00  0.83  0.00  0.00  0.00  0.00  0.00
  YS02001647YS02001649    1.00   0.00  0.17  0.00  0.56  0.27  0.00  0.00  0.56  0.00
  YS02001649YS02001757    1.00   0.00  0.00  0.00  0.71  0.29  0.00  0.00  0.43  0.00
  YS02001652YS02001649    1.00   0.00  0.00  0.00  0.97  0.03  0.00  0.00  0.73  0.00
  YS02001655YS02001652    1.00   0.00  0.00  0.00  0.20  0.01  0.00  0.79  0.04  0.00
  YS02001658YS02001655    1.00   0.00  0.14  0.00  0.69  0.17  0.00  0.00  0.64  0.00
  YS02001661YS02001658    1.00   0.14  0.00  0.00  0.53  0.34  0.00  0.00  0.67  0.00
  YS02001664YS02001661    1.00   0.13  0.00  0.00  0.78  0.10  0.00  0.00  0.84  0.00
  YS02001745YS02001748    1.00   0.00  0.00  0.00  0.13  0.01  0.00  0.87  0.05  0.00
  YS02001748YS02001751    1.00   0.00  0.00  0.00  0.85  0.15  0.00  0.00  0.75  0.00
  YS02001751YS02001754    1.00   0.00  0.00  0.00  0.18  0.01  0.00  0.81  0.02  0.00
  YS02001754YS02001757    1.00   0.00  0.00  0.00  1.00  0.00  0.00  0.00  0.80  0.00
  YS02001757CaochengTiaoxuchi    1.00   0.00  0.00  0.00  0.96  0.04  0.00  0.00  0.75  0.00
  YS02001759YS02001757    1.00   0.00  0.00  0.00  0.99  0.01  0.00  0.00  0.60  0.00
  YS02001762YS02001759    1.00   0.00  0.00  0.00  1.00  0.00  0.00  0.00  0.04  0.00
  YS02001765YS02001762    1.00   0.00  0.00  0.00  1.00  0.00  0.00  0.00  0.70  0.00
  YS02001767YS02001765    1.00   0.00  0.00  0.00  1.00  0.00  0.00  0.00  0.00  0.00
  YS02001770YS02001767    1.00   0.00  0.00  0.00  1.00  0.00  0.00  0.00  0.00  0.00
  YS02001774YS02001770    1.00   0.00  0.13  0.00  0.70  0.00  0.16  0.00  0.03  0.00
  YS02001779YS02001774    1.00   0.00  0.00  0.00  1.00  0.00  0.00  0.00  0.76  0.00
  YS02001783YS02001784    1.00   0.00  0.17  0.00  0.83  0.00  0.00  0.00  0.55  0.00
  YS02001784YS02001785    1.00   0.00  0.00  0.00  1.00  0.00  0.00  0.00  0.16  0.00
  YS02001786YS02001788    1.00   0.00  0.00  0.00  0.80  0.20  0.00  0.00  0.00  0.00
  YS02001788YS02001790    1.00   0.00  0.00  0.00  0.22  0.78  0.00  0.00  0.79  0.00
  YS02001790YS02001791    1.00   0.00  0.00  0.00  0.01  0.99  0.00  0.00  0.16  0.00
  YS02001791YS02001793    1.00   0.00  0.00  0.00  0.00  1.00  0.00  0.00  0.01  0.00
  YS02001793JiankangQianchi    1.00   0.00  0.00  0.00  0.95  0.05  0.00  0.00  0.96  0.00
  YS02001882YS02001884    1.00   0.15  0.01  0.00  0.84  0.00  0.00  0.00  0.00  0.00
  YS02001884YS02001887    1.00   0.06  0.05  0.00  0.89  0.00  0.00  0.00  0.00  0.00
  YS02001887YS02001890    1.00   0.00  0.00  0.00  0.97  0.00  0.03  0.00  0.00  0.00
  YS02001890YS02001895    1.00   0.00  0.16  0.00  0.84  0.00  0.00  0.00  0.00  0.00
  YS02001895YS02001898    1.00   0.16  0.00  0.00  0.82  0.00  0.02  0.00  0.00  0.00
  YS02001898YS02001901    1.00   0.16  0.00  0.00  0.84  0.00  0.00  0.00  0.01  0.00
  YS02001901YS02001904    1.00   0.16  0.00  0.00  0.84  0.00  0.00  0.00  0.00  0.00
  YS02001904YS02001907    1.00   0.00  0.16  0.00  0.84  0.00  0.00  0.00  0.00  0.00
  YS02001907YS02006553    1.00   0.00  0.02  0.00  0.98  0.00  0.00  0.00  0.00  0.00
  YS02001910YS02001907    1.00   0.00  0.00  0.00  0.97  0.00  0.00  0.03  0.12  0.00
  YS02001915YS02001910    1.00   0.00  0.00  0.00  0.97  0.03  0.00  0.00  0.15  0.00
  YS02001918YS02001915    1.00   0.00  0.01  0.00  0.98  0.02  0.00  0.00  0.73  0.00
  YS02001920YS02001918    1.00   0.00  0.01  0.00  0.99  0.00  0.00  0.00  0.00  0.00
  YS02001923YS02001920    1.00   0.00  0.00  0.00  1.00  0.00  0.00  0.00  0.91  0.00
  YS02001926YS02001923    1.00   0.00  0.07  0.00  0.08  0.00  0.85  0.00  0.00  0.00
  YS02001929YS02001926    1.00   0.00  0.13  0.00  0.87  0.00  0.00  0.00  0.80  0.00
  YS02006553YS02006556    1.00   0.01  0.00  0.00  0.99  0.00  0.00  0.00  0.03  0.00
  YS02006556YS02006558    1.00   0.00  0.00  0.00  1.00  0.00  0.00  0.00  0.00  0.00
  YS02006558YS02006561    1.00   0.17  0.00  0.00  0.07  0.75  0.00  0.00  0.18  0.00
  YS02006561YS02001783    1.00   0.17  0.00  0.00  0.11  0.72  0.00  0.00  0.67  0.00
  YS02163301YS02001633    1.00   0.00  0.15  0.00  0.85  0.00  0.00  0.00  0.00  0.00
  YS02163601YS02164001    1.00   0.00  0.08  0.00  0.92  0.00  0.00  0.00  0.00  0.00
  YS02164001YS02001641    1.00   0.01  0.07  0.00  0.92  0.00  0.00  0.00  0.05  0.00
  
  
  *************************
  Conduit Surcharge Summary
  *************************
  
  ----------------------------------------------------------------------------
                                                           Hours        Hours 
                         --------- Hours Full --------   Above Full   Capacity
  Conduit                Both Ends  Upstream  Dnstream   Normal Flow   Limited
  ----------------------------------------------------------------------------
  WS02003072WS02003073        0.01      0.01      0.01      1.16         0.01
  WS02004403WS02004404        0.01      0.01      0.05      0.01         0.01
  WS02004404WS02004405        0.01      0.05      0.01      2.62         0.01
  WS02004405WS02004406        0.01      0.01      0.01      0.84         0.01
  WS02006109WS02006110        0.93      0.93      1.84      0.97         0.01
  WS02006110WS02006113        0.01      0.01      1.83      0.01         0.01
  WS02006111WS02006112        0.01      0.01      2.01      0.01         0.01
  WS02006112WS02006115        0.01      0.01      0.98      0.01         0.01
  WS02006228WS02006109        1.82      1.84      1.82      2.19         1.82
  WS02006229WS02006228        1.82      1.82      1.82      1.97         1.81
  WS02006230WS02006229        1.87      1.93      1.87      3.25         1.87
  WS02006231WS02006230        0.94      0.94      0.99      2.90         0.01
  WS02006232WS02006231        0.98      0.98      1.84      1.02         0.01
  WS02006234WS02006232        1.79      1.79      1.84      1.01         1.01
  WS02006235WS02006234        1.14      1.14      1.80      2.71         0.01
  WS02006238WS02006235        1.81      1.81      1.84      0.01         0.01
  WS02006239WS02006238        1.82      1.83      1.82      1.94         1.70
  WS02006240WS02006239        1.81      1.82      1.81      1.95         1.57
  WS02006242WS02006240        1.81      1.81      1.86      2.11         0.01
  WS02006243WS02006242        1.81      1.81      1.83      0.01         0.02
  WS02006245WS02006243        1.81      1.81      1.81      1.04         1.03
  WS02006247WS02006245        1.81      1.81      1.81      2.44         1.80
  WS02006248WS02006247        1.80      1.80      1.81      0.01         0.02
  WS02006249WS02006248        1.80      1.80      1.80      2.40         0.01
  WS02006251WS02006249        1.80      1.80      1.80      2.06         1.77
  WS02006252WS02006251        2.14      2.14      2.16      2.14         0.01
  WS02006256WS02006235        2.77      2.80      6.69      1.31         0.01
  YS02001580YS02001583        0.81      0.81      0.85      0.01         0.01
  YS02001583YS02001586        0.82      0.82      0.93      0.01         0.01
  YS02001586YS02001590        0.94      0.94      1.01      0.01         0.01
  YS02001590YS02001593        1.02      1.02      1.03      1.07         0.01
  YS02001593YS02001596        1.03      1.03      1.13      0.01         0.01
  YS02001596YS02001600        1.18      1.18      1.30      0.01         0.01
  YS02001600YS02001601        1.35      1.35      1.58      0.01         0.01
  YS02001601YS02001602        1.49      1.49      1.61      1.29         0.01
  YS02001602YS02001605        1.45      1.45      1.49      2.37         0.01
  YS02001605YS02001607        1.41      1.45      1.41      1.54         1.41
  YS02001607YS02001610        1.00      1.00      1.03      0.01         0.01
  YS02001610YS02001613        1.00      1.00      1.03      0.01         0.01
  YS02001613YS02001616        0.95      0.95      1.00      0.01         0.01
  YS02001616YS02001619        0.94      0.94      0.95      0.15         0.12
  YS02001619YS02001622        0.94      0.94      0.94      1.00         0.91
  YS02001622YS02001625        0.94      0.94      1.13      0.01         0.01
  YS02001625YS02001629        0.89      0.89      1.13      0.01         0.01
  YS02001629YS02163301        1.13      1.13      1.14      0.15         0.16
  YS02001633YS02163601        1.16      1.16      1.20      0.35         0.34
  YS02001641YS02001644        1.08      1.11      1.08      1.64         1.07
  YS02001644YS02001647        0.85      0.85      1.08      0.04         0.01
  YS02001647YS02001649        0.85      0.85      0.99      0.01         0.01
  YS02001649YS02001757        0.98      0.99      1.07      0.10         0.04
  YS02001652YS02001649        0.81      0.81      0.99      0.01         0.01
  YS02001655YS02001652        0.59      0.59      0.78      0.01         0.01
  YS02001658YS02001655        0.35      0.35      0.59      0.01         0.01
  YS02001661YS02001658        0.15      0.15      0.35      0.01         0.01
  YS02001664YS02001661        0.01      0.01      0.21      0.01         0.01
  YS02001745YS02001748        0.02      0.02      0.29      0.01         0.01
  YS02001748YS02001751        0.33      0.33      0.45      0.01         0.01
  YS02001751YS02001754        0.45      0.45      0.68      0.01         0.01
  YS02001754YS02001757        0.73      0.73      1.07      0.01         0.01
  YS02001757CaochengTiaoxuchi        1.00      1.07      1.57      0.48         0.38
  YS02001759YS02001757        0.97      0.97      1.07      0.12         0.12
  YS02001762YS02001759        0.93      0.93      0.97      0.01         0.02
  YS02001765YS02001762        0.88      0.88      0.93      0.01         0.01
  YS02001767YS02001765        0.85      0.85      0.88      0.01         0.02
  YS02001770YS02001767        0.84      0.84      0.85      0.64         0.52
  YS02001774YS02001770        0.81      0.81      0.90      0.01         0.01
  YS02001779YS02001774        0.68      0.68      0.90      0.01         0.01
  YS02001783YS02001784        0.65      0.68      0.65      0.83         0.65
  YS02001784YS02001785        0.54      0.65      0.54      1.09         0.54
  YS02001786YS02001788        0.01      0.54      0.01      0.94         0.01
  YS02001790YS02001791        0.01      0.01      0.01      0.64         0.01
  YS02001793JiankangQianchi        0.01      0.01      6.47      0.01         0.01
  YS02001882YS02001884        0.62      0.62      0.63      0.01         0.01
  YS02001884YS02001887        0.65      0.65      0.67      0.01         0.01
  YS02001887YS02001890        0.68      0.68      0.69      0.22         0.01
  YS02001890YS02001895        0.61      0.61      0.71      0.01         0.01
  YS02001895YS02001898        0.60      0.60      0.61      0.01         0.01
  YS02001898YS02001901        0.61      0.61      0.65      0.01         0.01
  YS02001901YS02001904        0.64      0.64      0.65      0.01         0.01
  YS02001904YS02001907        0.64      0.64      0.92      0.01         0.01
  YS02001907YS02006553        1.09      1.09      1.17      0.01         0.01
  YS02001910YS02001907        0.71      0.71      0.90      0.13         0.13
  YS02001915YS02001910        0.62      0.62      0.71      0.01         0.01
  YS02001918YS02001915        0.53      0.53      0.62      0.01         0.01
  YS02001920YS02001918        0.53      0.53      0.54      0.01         0.01
  YS02001923YS02001920        0.49      0.49      0.54      0.01         0.01
  YS02001926YS02001923        0.24      0.24      0.26      0.07         0.01
  YS02001929YS02001926        0.14      0.14      0.26      0.01         0.01
  YS02006553YS02006556        0.81      0.81      0.92      0.01         0.01
  YS02006556YS02006558        0.86      0.86      0.94      0.01         0.01
  YS02006558YS02006561        0.56      0.79      0.56      1.03         0.56
  YS02006561YS02001783        0.50      0.50      0.68      0.01         0.01
  YS02163301YS02001633        1.14      1.14      1.18      0.01         0.01
  YS02163601YS02164001        1.11      1.11      1.20      0.08         0.01
  YS02164001YS02001641        1.11      1.11      1.11      0.79         0.75
  
  
  ***************
  Pumping Summary
  ***************
  
  ---------------------------------------------------------------------------------------------------------
                                                  Min       Avg       Max     Total     Power    % Time Off
                        Percent   Number of      Flow      Flow      Flow    Volume     Usage    Pump Curve
  Pump                 Utilized   Start-Ups       LPS       LPS       LPS  10^6 ltr     Kw-hr    Low   High
  ---------------------------------------------------------------------------------------------------------
  CC-R1                   26.27          28      0.00    683.00    683.00     5.167     95.14    0.0   30.4
  CC-R2                   22.30          27      0.00    683.00    683.00     4.386     81.34    0.0   27.0
  CC-S1                   28.55          26      0.00    200.00    200.00     1.644      9.43    0.0    0.0
  CC-S2                   30.07          18      0.00    200.00    200.00     1.732     10.04    0.0    0.0
  JK-R1                    4.08          16      0.00   1000.00   1000.00     1.174     11.42    0.0    0.0
  JK-R2                    7.54          22      0.00   1000.00   1000.00     2.173     19.58    0.0    0.0
  JK-S                    15.82          34      0.00    300.00    300.00     1.367     22.82    0.0    0.0
  

  Analysis begun on:  Mon Dec 30 10:12:46 2024
  Analysis ended on:  Mon Dec 30 10:12:48 2024
  Total elapsed time: 00:00:02