
  EPA STORM WATER MANAGEMENT MODEL - VERSION 5.2 (Build 5.2.4)
  PYSWMM TOOLKIT API - VERSION v1.0 (2023-11-27)
  ------------------------------------------------------------

  WARNING 04: minimum elevation drop used for Conduit WS02004404WS02004405
  WARNING 03: negative offset ignored for Link YS02001904YS02001907
  
  ****************
  Analysis Options
  ****************
  Flow Units ............... LPS
  Process Models:
    Rainfall/Runoff ........ YES
    RDII ................... NO
    Snowmelt ............... NO
    Groundwater ............ NO
    Flow Routing ........... YES
    Ponding Allowed ........ NO
    Water Quality .......... NO
  Infiltration Method ...... HORTON
  Flow Routing Method ...... DYNWAVE
  Surcharge Method ......... EXTRAN
  Starting Date ............ 08/28/2015 08:00:00
  Ending Date .............. 08/28/2015 16:00:00
  Antecedent Dry Days ...... 8.0
  Report Time Step ......... 00:01:00
  Wet Time Step ............ 00:01:00
  Dry Time Step ............ 00:01:00
  Routing Time Step ........ 30.00 sec
  Variable Time Step ....... YES
  Maximum Trials ........... 8
  Number of Threads ........ 4
  Head Tolerance ........... 0.001500 m
  
  
  **************************        Volume         Depth
  Runoff Quantity Continuity     hectare-m            mm
  **************************     ---------       -------
  Total Precipitation ......         2.296        69.221
  Evaporation Loss .........         0.000         0.000
  Infiltration Loss ........         0.103         3.093
  Surface Runoff ...........         2.161        65.148
  Final Storage ............         0.033         0.996
  Continuity Error (%) .....        -0.024
  
  
  **************************        Volume        Volume
  Flow Routing Continuity        hectare-m      10^6 ltr
  **************************     ---------     ---------
  Dry Weather Inflow .......         0.025         0.251
  Wet Weather Inflow .......         2.161        21.608
  Groundwater Inflow .......         0.000         0.000
  RDII Inflow ..............         0.000         0.000
  External Inflow ..........         0.083         0.834
  External Outflow .........         1.624        16.245
  Flooding Loss ............         0.714         7.145
  Evaporation Loss .........         0.000         0.000
  Exfiltration Loss ........         0.000         0.000
  Initial Stored Volume ....         0.243         2.431
  Final Stored Volume ......         0.182         1.821
  Continuity Error (%) .....        -0.349
  
  
  *************************
  Highest Continuity Errors
  *************************
  Node YS02001884 (5.15%)
  Node YS02001583 (-4.19%)
  Node WS02006256 (-2.70%)
  
  
  ***************************
  Time-Step Critical Elements
  ***************************
  Link WS02006238WS02006235 (30.70%)
  Link WS02006252WS02006251 (18.99%)
  Link WS02004404WS02004405 (17.50%)
  Link YS02001791YS02001793 (8.43%)
  Link WS02003066WSF200 (4.91%)
  
  
  ********************************
  Highest Flow Instability Indexes
  ********************************
  Link WS02006113WS02006111 (36)
  Link WS02006238WS02006235 (24)
  Link WS02006256WS02006235 (22)
  Link WS02006252WS02006251 (22)
  Link WS02004404WS02004405 (20)
  
  
  *********************************
  Most Frequent Nonconverging Nodes
  *********************************
  Node CC-1 (17.15%)
  Node CC-2 (17.15%)
  Node JK-1 (17.15%)
  Node JK-2 (17.15%)
  Node WSC (17.15%)
  
  
  *************************
  Routing Time Step Summary
  *************************
  Minimum Time Step           :     0.01 sec
  Average Time Step           :     2.71 sec
  Maximum Time Step           :     6.43 sec
  % of Time in Steady State   :     0.00
  Average Iterations per Step :     3.60
  % of Steps Not Converging   :    17.15
  Time Step Frequencies       :
     30.000 - 13.228 sec      :     0.00 %
     13.228 -  5.833 sec      :    13.04 %
      5.833 -  2.572 sec      :    27.95 %
      2.572 -  1.134 sec      :    30.88 %
      1.134 -  0.500 sec      :    28.14 %
  
  
  ***************************
  Subcatchment Runoff Summary
  ***************************
  
  ------------------------------------------------------------------------------------------------------------------------------
                            Total      Total      Total      Total     Imperv       Perv      Total       Total     Peak  Runoff
                           Precip      Runon       Evap      Infil     Runoff     Runoff     Runoff      Runoff   Runoff   Coeff
  Subcatchment                 mm         mm         mm         mm         mm         mm         mm    10^6 ltr      LPS
  ------------------------------------------------------------------------------------------------------------------------------
  sub60                     69.22       0.00       0.00       1.83      59.72       6.48      66.20        0.87   653.10   0.956
  sub61                     69.22       0.00       0.00       2.66      56.33       9.11      65.44        1.20   908.71   0.945
  sub62                     69.22       0.00       0.00       1.22      62.40       4.32      66.72        1.83  1279.29   0.964
  sub63                     69.22       0.00       0.00       4.96      48.18      15.12      63.30        1.44  1039.26   0.915
  sub64                     69.22       0.00       0.00       2.50      57.63       7.89      65.52        1.57  1050.58   0.947
  sub65                     69.22       0.00       0.00       2.16      58.97       6.84      65.81        1.81  1172.64   0.951
  sub66                     69.22       0.00       0.00       6.20      48.07      13.88      61.95        2.89  1579.01   0.895
  sub67                     69.22       0.00       0.00       1.17      62.44       4.37      66.82        1.24   971.92   0.965
  sub68                     69.22       0.00       0.00       2.20      58.35       7.49      65.84        1.81  1314.08   0.951
  sub69                     69.22       0.00       0.00       2.00      58.73       8.39      67.12        2.48  1556.60   0.970
  sub70                     69.22       0.00       0.00       6.73      45.52      16.81      62.33        1.80   885.47   0.900
  sub71                     69.22       0.00       0.00       1.25      62.36       4.28      66.64        1.74  1130.99   0.963
  sub72                     69.22       0.00       0.00       1.12      62.97       3.73      66.70        0.92   549.34   0.964
  
  
  ******************
  Node Depth Summary
  ******************
  
  ---------------------------------------------------------------------------------
                                 Average  Maximum  Maximum  Time of Max    Reported
                                   Depth    Depth      HGL   Occurrence   Max Depth
  Node                 Type       Meters   Meters   Meters  days hr:min      Meters
  ---------------------------------------------------------------------------------
  WS02003060           JUNCTION     0.22     0.38     5.31     0  03:08        0.38
  WS02003066           JUNCTION     0.18     0.30     5.85     0  03:07        0.30
  WS02003067           JUNCTION     0.48     0.70     6.02     0  03:07        0.70
  WS02003069           JUNCTION     0.25     0.43     5.01     0  03:09        0.43
  WS02003072           JUNCTION     0.31     0.50     4.87     0  03:09        0.50
  WS02003073           JUNCTION     0.17     0.30     4.36     0  03:10        0.30
  WS02004401           JUNCTION     0.57     0.87     6.87     0  03:03        0.87
  WS02004402           JUNCTION     0.60     0.90     6.86     0  03:06        0.90
  WS02004403           JUNCTION     0.63     0.92     6.85     0  03:05        0.91
  WS02004404           JUNCTION     0.70     1.01     6.86     0  03:05        1.00
  WS02004405           JUNCTION     0.69     0.97     6.82     0  03:05        0.96
  WS02004406           JUNCTION     0.70     0.96     6.79     0  03:06        0.96
  WS02004407           JUNCTION     0.16     0.30     6.61     0  03:06        0.30
  WS02004409           JUNCTION     0.37     0.67     6.44     0  03:06        0.67
  WS02004410           JUNCTION     0.39     0.68     6.40     0  03:06        0.68
  WS02004411           JUNCTION     0.42     0.69     6.37     0  03:07        0.69
  WS02004412           JUNCTION     0.44     0.70     6.34     0  03:07        0.70
  WS02004413           JUNCTION     0.59     0.86     6.33     0  03:07        0.86
  WS02006109           JUNCTION     0.62     1.18     7.80     0  02:21        0.98
  WS02006110           JUNCTION     0.63     1.35     7.94     0  02:21        0.94
  WS02006111           JUNCTION     0.17     0.29     6.99     0  03:00        0.29
  WS02006112           JUNCTION     0.72     1.10     6.98     0  02:33        1.07
  WS02006113           JUNCTION     0.25     0.46     7.35     0  02:57        0.46
  WS02006115           JUNCTION     0.46     0.77     6.91     0  03:05        0.77
  WS02006116           JUNCTION     0.54     0.85     6.89     0  03:05        0.85
  WS02006228           JUNCTION     0.61     1.37     8.02     0  02:55        1.03
  WS02006229           JUNCTION     0.59     1.44     8.14     0  02:55        1.04
  WS02006230           JUNCTION     0.59     1.61     8.36     0  02:55        1.16
  WS02006231           JUNCTION     0.39     1.34     8.46     0  02:55        0.92
  WS02006232           JUNCTION     0.52     1.80     8.83     0  02:12        1.13
  WS02006234           JUNCTION     0.45     1.96     9.12     0  02:12        1.16
  WS02006235           JUNCTION     0.49     2.00     9.16     0  02:12        1.26
  WS02006238           JUNCTION     0.51     2.12     9.27     0  02:12        1.30
  WS02006239           JUNCTION     0.48     2.03     9.24     0  02:12        1.29
  WS02006240           JUNCTION     0.45     1.92     9.22     0  02:12        1.25
  WS02006242           JUNCTION     0.51     1.55     8.82     0  02:12        1.37
  WS02006243           JUNCTION     0.43     1.45     8.87     0  02:45        1.29
  WS02006245           JUNCTION     0.43     1.37     8.85     0  02:45        1.26
  WS02006247           JUNCTION     0.45     1.30     8.80     0  02:45        1.24
  WS02006248           JUNCTION     0.42     1.10     8.69     0  02:12        1.10
  WS02006249           JUNCTION     0.45     1.09     8.69     0  01:58        1.09
  WS02006251           JUNCTION     0.44     1.30     8.97     0  01:59        1.30
  WS02006252           JUNCTION     0.30     1.50     9.74     0  00:00        0.87
  WS02006256           JUNCTION     0.99     2.35     9.28     0  00:00        2.35
  WSF200               JUNCTION     0.16     0.29     5.52     0  03:07        0.29
  YS02001580           JUNCTION     0.11     1.05     9.59     0  02:10        0.89
  YS02001583           JUNCTION     0.15     1.14     9.64     0  02:10        0.88
  YS02001586           JUNCTION     0.25     1.13     9.30     0  02:10        1.13
  YS02001590           JUNCTION     0.36     1.40     9.26     0  02:10        1.38
  YS02001593           JUNCTION     0.29     1.38     9.24     0  02:10        1.29
  YS02001596           JUNCTION     0.40     1.72     9.14     0  02:10        1.66
  YS02001600           JUNCTION     0.48     1.87     9.00     0  02:10        1.86
  YS02001601           JUNCTION     0.68     2.06     8.90     0  02:09        2.06
  YS02001602           JUNCTION     0.58     1.87     8.77     0  02:14        1.87
  YS02001605           JUNCTION     0.54     1.78     8.68     0  02:20        1.78
  YS02001607           JUNCTION     0.51     1.65     8.50     0  02:20        1.65
  YS02001610           JUNCTION     0.55     1.68     8.48     0  02:15        1.68
  YS02001613           JUNCTION     0.51     1.68     8.52     0  02:23        1.68
  YS02001616           JUNCTION     0.44     1.61     8.52     0  02:23        1.61
  YS02001619           JUNCTION     0.42     1.61     8.54     0  02:20        1.61
  YS02001622           JUNCTION     0.41     1.58     8.49     0  02:24        1.58
  YS02001625           JUNCTION     0.66     1.78     8.38     0  02:15        1.78
  YS02001629           JUNCTION     0.55     1.85     8.40     0  02:17        1.85
  YS02001633           JUNCTION     0.62     2.08     8.53     0  02:23        2.08
  YS02001641           JUNCTION     0.59     1.95     8.39     0  02:19        1.95
  YS02001644           JUNCTION     0.58     1.92     8.35     0  02:19        1.92
  YS02001647           JUNCTION     0.36     1.76     8.37     0  02:24        1.75
  YS02001649           JUNCTION     0.41     1.99     8.38     0  02:24        1.99
  YS02001652           JUNCTION     0.29     1.84     8.44     0  02:24        1.84
  YS02001655           JUNCTION     0.22     1.65     8.50     0  02:24        1.63
  YS02001658           JUNCTION     0.16     1.42     8.56     0  02:24        1.40
  YS02001661           JUNCTION     0.17     1.21     8.62     0  02:24        1.20
  YS02001664           JUNCTION     0.07     0.69     8.61     0  02:24        0.67
  YS02001745           JUNCTION     0.08     0.90     8.42     0  02:24        0.89
  YS02001748           JUNCTION     0.15     1.46     8.54     0  02:20        1.31
  YS02001751           JUNCTION     0.18     1.51     8.38     0  02:20        1.48
  YS02001754           JUNCTION     0.25     1.73     8.34     0  02:24        1.73
  YS02001757           JUNCTION     0.42     2.05     8.31     0  02:24        2.05
  YS02001759           JUNCTION     0.36     2.06     8.42     0  02:24        2.06
  YS02001762           JUNCTION     0.35     2.03     8.43     0  02:24        2.03
  YS02001765           JUNCTION     0.33     1.98     8.43     0  02:24        1.98
  YS02001767           JUNCTION     0.33     1.95     8.44     0  02:24        1.94
  YS02001770           JUNCTION     0.34     1.95     8.44     0  02:17        1.95
  YS02001774           JUNCTION     0.41     2.03     8.45     0  02:17        2.03
  YS02001779           JUNCTION     0.23     1.68     8.37     0  02:16        1.68
  YS02001783           JUNCTION     0.29     1.26     7.40     0  02:16        1.24
  YS02001784           JUNCTION     0.30     1.14     7.21     0  02:16        1.13
  YS02001786           JUNCTION     0.25     0.89     6.92     0  02:23        0.88
  YS02001788           JUNCTION     0.18     0.62     6.60     0  02:23        0.62
  YS02001790           JUNCTION     0.22     0.73     6.37     0  02:21        0.72
  YS02001791           JUNCTION     0.14     0.44     5.91     0  02:21        0.43
  YS02001793           JUNCTION     0.07     0.29     5.12     0  02:26        0.28
  YS02001882           JUNCTION     0.36     1.70     8.41     0  02:23        1.70
  YS02001884           JUNCTION     0.45     1.80     8.41     0  02:23        1.80
  YS02001887           JUNCTION     0.52     1.89     8.43     0  02:23        1.89
  YS02001890           JUNCTION     0.55     1.81     8.32     0  02:16        1.81
  YS02001895           JUNCTION     0.33     1.57     8.32     0  02:33        1.56
  YS02001898           JUNCTION     0.34     1.58     8.31     0  02:33        1.56
  YS02001901           JUNCTION     0.45     1.69     8.30     0  02:33        1.67
  YS02001904           JUNCTION     0.43     1.65     8.28     0  02:23        1.65
  YS02001907           JUNCTION     0.74     1.96     8.25     0  02:16        1.96
  YS02001910           JUNCTION     0.55     1.99     8.49     0  02:23        1.99
  YS02001915           JUNCTION     0.37     1.98     8.69     0  02:23        1.98
  YS02001918           JUNCTION     0.21     1.81     8.88     0  02:17        1.59
  YS02001920           JUNCTION     0.29     2.14     9.15     0  02:17        1.66
  YS02001923           JUNCTION     0.16     2.03     9.29     0  02:17        1.43
  YS02001926           JUNCTION     0.19     1.90     9.35     0  02:17        1.26
  YS02001929           JUNCTION     0.11     1.78     9.47     0  02:17        1.02
  YS02006553           JUNCTION     0.74     2.00     8.29     0  02:23        2.00
  YS02006556           JUNCTION     0.71     2.06     8.37     0  02:23        2.06
  YS02006558           JUNCTION     0.76     2.13     8.40     0  02:23        2.13
  YS02006561           JUNCTION     0.18     0.94     7.60     0  02:16        0.92
  YS02163301           JUNCTION     0.57     1.93     8.45     0  02:23        1.93
  YS02163601           JUNCTION     0.65     2.06     8.46     0  02:23        2.06
  YS02164001           JUNCTION     0.58     1.98     8.43     0  02:23        1.98
  CC-1                 OUTFALL      0.00     0.00     0.00     0  00:00        0.00
  CC-2                 OUTFALL      0.00     0.00     0.00     0  00:00        0.00
  JK-1                 OUTFALL      0.00     0.00     0.00     0  00:00        0.00
  JK-2                 OUTFALL      0.00     0.00     0.00     0  00:00        0.00
  WSC                  OUTFALL      0.17     0.30     0.97     0  03:10        0.30
  CC-storage           STORAGE      0.78     1.65     7.15     0  02:47        1.65
  JK-storage           STORAGE      1.62     4.23     5.03     0  02:25        4.22
  
  
  *******************
  Node Inflow Summary
  *******************
  
  -------------------------------------------------------------------------------------------------
                                  Maximum  Maximum                  Lateral       Total        Flow
                                  Lateral    Total  Time of Max      Inflow      Inflow     Balance
                                   Inflow   Inflow   Occurrence      Volume      Volume       Error
  Node                 Type           LPS      LPS  days hr:min    10^6 ltr    10^6 ltr     Percent
  -------------------------------------------------------------------------------------------------
  WS02003060           JUNCTION     16.53   551.88     0  03:08       0.476        4.43       0.053
  WS02003066           JUNCTION      0.00   534.87     0  03:07           0        3.95       0.036
  WS02003067           JUNCTION      0.00   534.70     0  03:07           0        3.96       0.106
  WS02003069           JUNCTION      0.32   551.93     0  03:08     0.00922        4.43       0.093
  WS02003072           JUNCTION      0.00   551.31     0  03:09           0        4.43       0.163
  WS02003073           JUNCTION      1.82   552.74     0  03:09      0.0524        4.47       0.132
  WS02004401           JUNCTION      0.00   539.51     0  03:02           0        4.06       0.257
  WS02004402           JUNCTION      0.00   538.53     0  03:03           0        4.05       0.260
  WS02004403           JUNCTION      0.00   541.84     0  03:06           0        4.04       0.253
  WS02004404           JUNCTION      0.16   557.60     0  03:05     0.00467        4.03       0.202
  WS02004405           JUNCTION      0.04   599.93     0  03:01      0.0011        4.02       0.257
  WS02004406           JUNCTION      0.00   541.91     0  03:05           0        4.01       0.527
  WS02004407           JUNCTION      0.00   537.88     0  03:06           0        3.99       0.030
  WS02004409           JUNCTION      0.00   537.33     0  03:06           0        3.99       0.070
  WS02004410           JUNCTION      0.00   536.49     0  03:06           0        3.99       0.114
  WS02004411           JUNCTION      0.00   535.67     0  03:06           0        3.98       0.144
  WS02004412           JUNCTION      0.00   535.33     0  03:07           0        3.98       0.191
  WS02004413           JUNCTION      0.00   535.10     0  03:07           0        3.97       0.345
  WS02006109           JUNCTION      1.23   564.09     0  02:13      0.0354        4.11       0.232
  WS02006110           JUNCTION      0.00   566.63     0  02:13           0         4.1       0.175
  WS02006111           JUNCTION      0.00   562.43     0  02:57           0        4.09       0.025
  WS02006112           JUNCTION      0.00   543.61     0  03:00           0        4.09       0.498
  WS02006113           JUNCTION      0.00   575.01     0  02:13           0        4.09       0.046
  WS02006115           JUNCTION      0.00   553.96     0  02:57           0        4.07       0.179
  WS02006116           JUNCTION      0.00   540.18     0  03:01           0        4.06       0.104
  WS02006228           JUNCTION      0.00   561.21     0  02:55           0        4.08       0.112
  WS02006229           JUNCTION      0.00   561.31     0  02:55           0        4.08       0.137
  WS02006230           JUNCTION     10.28   585.52     0  02:26       0.296        4.09       0.086
  WS02006231           JUNCTION      0.00   619.48     0  02:12           0        3.79       0.025
  WS02006232           JUNCTION      0.00   612.30     0  02:12           0         3.8       0.224
  WS02006234           JUNCTION      0.00   593.33     0  02:12           0        3.78      -0.405
  WS02006235           JUNCTION      0.00   567.68     0  02:12           0        3.89       0.413
  WS02006238           JUNCTION      0.00   425.02     0  02:15           0        3.07      -0.237
  WS02006239           JUNCTION      0.00   423.61     0  02:15           0           3      -0.156
  WS02006240           JUNCTION      0.00   419.89     0  02:00           0        2.96      -0.062
  WS02006242           JUNCTION      0.00   420.53     0  02:00           0        2.95      -0.005
  WS02006243           JUNCTION      0.00   420.72     0  03:16           0        2.93      -0.407
  WS02006245           JUNCTION      0.00   420.86     0  03:16           0        2.95       0.656
  WS02006247           JUNCTION      0.00   420.52     0  03:16           0        2.95      -0.043
  WS02006248           JUNCTION      0.00   421.98     0  02:15           0        2.94      -0.192
  WS02006249           JUNCTION      0.00   473.58     0  01:55           0        3.12       0.864
  WS02006251           JUNCTION      0.08   406.52     0  01:59     0.00222        3.12       0.086
  WS02006252           JUNCTION      0.00   400.00     0  00:00           0         3.1      -0.615
  WS02006256           JUNCTION      0.00   300.00     0  00:00           0        1.19      -2.634
  WSF200               JUNCTION      0.00   534.97     0  03:08           0        3.95       0.014
  YS02001580           JUNCTION      0.00    72.57     0  02:10           0     0.00414       1.824
  YS02001583           JUNCTION      0.00   118.63     0  02:10           0      0.0154      -4.023
  YS02001586           JUNCTION    885.47   885.47     0  02:26         1.8        1.81       0.056
  YS02001590           JUNCTION      0.00   318.11     0  02:20           0        1.36      -0.031
  YS02001593           JUNCTION      0.00   318.10     0  02:20           0        1.36       0.004
  YS02001596           JUNCTION      0.00   318.03     0  02:40           0        1.36      -0.017
  YS02001600           JUNCTION      0.00   318.17     0  02:20           0        1.36       0.024
  YS02001601           JUNCTION   1556.60  1874.02     0  02:25        2.48        3.84       0.025
  YS02001602           JUNCTION      0.00   493.03     0  02:10           0        2.32       0.021
  YS02001605           JUNCTION      0.00   493.79     0  02:10           0        2.21       0.023
  YS02001607           JUNCTION      0.00   494.61     0  02:10           0        2.21       0.091
  YS02001610           JUNCTION      0.00   888.94     0  02:26           0        2.52       0.095
  YS02001613           JUNCTION      0.00   551.97     0  02:26           0        2.05       0.079
  YS02001616           JUNCTION      0.00   552.96     0  02:26           0        2.05       0.024
  YS02001619           JUNCTION   1579.01  1579.01     0  02:26        2.89        4.62      -0.002
  YS02001622           JUNCTION      0.00  1033.46     0  02:25           0        4.31       0.001
  YS02001625           JUNCTION      0.00  1457.19     0  02:26           0        4.56       0.210
  YS02001629           JUNCTION      0.00   931.89     0  02:15           0        3.58       0.019
  YS02001633           JUNCTION   1172.84  1358.99     0  02:15        1.82        5.11       0.070
  YS02001641           JUNCTION      0.00  1359.05     0  02:15           0        4.82       0.059
  YS02001644           JUNCTION   1050.62  1741.62     0  02:15        1.57        6.39       0.053
  YS02001647           JUNCTION      0.00  1741.86     0  02:15           0        5.81       0.009
  YS02001649           JUNCTION      0.00  1995.04     0  02:16           0        7.25       0.007
  YS02001652           JUNCTION      0.00  1055.36     0  02:25           0        1.44      -0.064
  YS02001655           JUNCTION      0.15  1055.46     0  02:25     0.00443        1.44      -0.016
  YS02001658           JUNCTION      0.00  1055.46     0  02:25           0        1.44      -0.006
  YS02001661           JUNCTION      0.00  1055.74     0  02:25           0        1.44       0.016
  YS02001664           JUNCTION   1039.26  1039.26     0  02:25        1.44        1.44      -0.009
  YS02001745           JUNCTION    653.11   653.11     0  02:25        0.87        0.87       0.157
  YS02001748           JUNCTION      0.04   654.57     0  02:25      0.0013        0.87      -0.250
  YS02001751           JUNCTION      0.01   654.73     0  02:24    0.000317       0.875       0.023
  YS02001754           JUNCTION      0.26   655.45     0  02:24     0.00749       0.884      -0.135
  YS02001757           JUNCTION      0.00  3338.15     0  02:20           0        10.9       0.043
  YS02001759           JUNCTION    908.75  1398.46     0  02:24         1.2        2.78      -0.007
  YS02001762           JUNCTION      0.00   759.59     0  02:20           0        1.58       0.005
  YS02001765           JUNCTION      0.00   760.05     0  02:20           0        1.58       0.007
  YS02001767           JUNCTION      0.54   760.75     0  02:20      0.0154        1.58       0.002
  YS02001770           JUNCTION   1279.44  1279.44     0  02:25        1.83        1.88      -0.011
  YS02001774           JUNCTION      0.00   794.95     0  02:25           0       0.333       0.289
  YS02001779           JUNCTION      0.01   795.12     0  02:25    0.000144        0.29      -0.100
  YS02001783           JUNCTION      0.00  1167.89     0  02:23           0        4.13       0.007
  YS02001784           JUNCTION      1.06  1168.85     0  02:23      0.0305        4.16       0.013
  YS02001786           JUNCTION      0.06  1169.88     0  02:23     0.00162        4.16       0.017
  YS02001788           JUNCTION      0.07  1171.10     0  02:23     0.00204        4.16       0.007
  YS02001790           JUNCTION      0.15  1177.10     0  02:23     0.00446        4.16       0.020
  YS02001791           JUNCTION      0.00  1293.64     0  02:21           0        4.16      -0.026
  YS02001793           JUNCTION      0.00  1253.56     0  02:21           0        4.16       0.005
  YS02001882           JUNCTION      0.00    32.04     0  02:13           0      0.0125       5.157
  YS02001884           JUNCTION      0.00    42.25     0  02:12           0      0.0483       5.428
  YS02001887           JUNCTION    972.37   973.62     0  02:25        1.26        1.29       0.346
  YS02001890           JUNCTION      0.00   974.39     0  02:25           0        1.25       0.414
  YS02001895           JUNCTION      0.00   518.78     0  02:27           0         1.1       0.137
  YS02001898           JUNCTION      0.00   518.16     0  02:29           0         1.1       0.029
  YS02001901           JUNCTION      0.00   518.14     0  02:28           0         1.1       0.305
  YS02001904           JUNCTION      0.00   518.24     0  02:28           0        1.11       0.259
  YS02001907           JUNCTION      0.00  2355.75     0  02:25           0        3.86       0.464
  YS02001910           JUNCTION      0.00  1688.98     0  02:25           0        2.74       0.261
  YS02001915           JUNCTION   1131.01  1688.92     0  02:25        1.74        2.77       0.056
  YS02001918           JUNCTION      0.00   562.26     0  02:25           0        1.05       0.013
  YS02001920           JUNCTION      2.87   561.64     0  02:25      0.0827        1.03       0.074
  YS02001923           JUNCTION      0.04   559.14     0  02:25     0.00109       0.938      -0.102
  YS02001926           JUNCTION      0.05   559.04     0  02:25      0.0015       0.924      -0.011
  YS02001929           JUNCTION    549.34   549.34     0  02:26       0.917       0.918      -0.049
  YS02006553           JUNCTION      0.00   805.63     0  02:38           0        2.37       0.502
  YS02006556           JUNCTION      0.00   805.81     0  02:39           0        2.38       0.345
  YS02006558           JUNCTION   1314.96  1314.96     0  02:25        1.84        4.17       0.082
  YS02006561           JUNCTION      0.00  1168.01     0  02:23           0        4.13      -0.000
  YS02163301           JUNCTION      0.00   933.15     0  02:15           0        3.58       0.043
  YS02163601           JUNCTION      0.11  1358.64     0  02:15     0.00317        4.82       0.106
  YS02164001           JUNCTION      0.00  1358.31     0  02:15           0        4.81       0.051
  CC-1                 OUTFALL       0.00   683.00     0  00:00           0        4.66       0.000
  CC-2                 OUTFALL       0.00   683.00     0  00:00           0        4.01       0.000
  JK-1                 OUTFALL       0.00  1000.00     0  00:00           0        1.33       0.000
  JK-2                 OUTFALL       0.00  1000.00     0  00:00           0        1.78       0.000
  WSC                  OUTFALL       0.00   552.21     0  03:10           0        4.47       0.000
  CC-storage           STORAGE       0.00  3339.58     0  02:21           0        13.1      -0.237
  JK-storage           STORAGE       0.00  1255.98     0  02:24           0        4.31      -0.391
  
  
  **********************
  Node Surcharge Summary
  **********************
  
  Surcharging occurs when water rises above the top of the highest conduit.
  ---------------------------------------------------------------------
                                               Max. Height   Min. Depth
                                   Hours       Above Crown    Below Rim
  Node                 Type      Surcharged         Meters       Meters
  ---------------------------------------------------------------------
  WS02004404           JUNCTION        0.01          0.009        2.771
  WS02006109           JUNCTION        1.60          0.359        1.461
  WS02006110           JUNCTION        0.44          0.440        1.410
  WS02006112           JUNCTION        0.64          0.095        1.585
  WS02006228           JUNCTION        1.60          0.538        1.662
  WS02006229           JUNCTION        1.61          0.641        1.809
  WS02006230           JUNCTION        0.47          0.534        1.036
  WS02006231           JUNCTION        0.60          0.631        0.899
  WS02006232           JUNCTION        1.68          1.096        0.384
  WS02006234           JUNCTION        1.06          1.240        0.000
  WS02006235           JUNCTION        1.56          1.290        0.000
  WS02006238           JUNCTION        1.62          1.402        0.028
  WS02006239           JUNCTION        1.57          1.290        0.000
  WS02006240           JUNCTION        1.57          1.215        0.175
  WS02006242           JUNCTION        1.72          0.820        0.000
  WS02006243           JUNCTION        1.52          0.737        0.033
  WS02006245           JUNCTION        1.52          0.659        0.191
  WS02006247           JUNCTION        1.56          0.594        0.166
  WS02006248           JUNCTION        1.50          0.380        0.000
  WS02006249           JUNCTION        1.54          0.390        0.000
  WS02006251           JUNCTION        0.68          0.274        0.906
  WS02006252           JUNCTION        2.00          1.100        0.000
  WS02006256           JUNCTION        7.27          2.050        0.000
  YS02001580           JUNCTION        0.64          0.450        0.000
  YS02001583           JUNCTION        0.65          0.500        0.000
  YS02001586           JUNCTION        0.75          0.510        0.000
  YS02001590           JUNCTION        0.83          0.750        0.000
  YS02001593           JUNCTION        0.83          0.762        0.078
  YS02001596           JUNCTION        0.95          0.987        0.083
  YS02001600           JUNCTION        1.10          1.190        0.000
  YS02001601           JUNCTION        1.45          1.440        0.000
  YS02001602           JUNCTION        1.33          1.270        0.000
  YS02001605           JUNCTION        1.27          1.178        0.002
  YS02001607           JUNCTION        0.81          0.647        0.033
  YS02001610           JUNCTION        0.83          0.680        0.000
  YS02001613           JUNCTION        0.80          0.683        0.017
  YS02001616           JUNCTION        0.76          0.610        0.000
  YS02001619           JUNCTION        0.74          0.610        0.000
  YS02001622           JUNCTION        0.74          0.585        0.035
  YS02001625           JUNCTION        0.93          0.780        0.000
  YS02001629           JUNCTION        0.69          0.470        0.000
  YS02001633           JUNCTION        0.95          1.060        0.000
  YS02001641           JUNCTION        0.88          0.953        0.147
  YS02001644           JUNCTION        0.84          0.920        0.000
  YS02001647           JUNCTION        0.61          0.764        0.136
  YS02001649           JUNCTION        0.71          0.990        0.060
  YS02001652           JUNCTION        0.53          0.813        0.317
  YS02001655           JUNCTION        0.39          0.650        0.550
  YS02001658           JUNCTION        0.23          0.421        0.879
  YS02001661           JUNCTION        0.07          0.144        1.246
  YS02001748           JUNCTION        0.18          0.378        0.812
  YS02001751           JUNCTION        0.29          0.505        0.695
  YS02001754           JUNCTION        0.44          0.682        0.468
  YS02001757           JUNCTION        0.77          1.051        0.159
  YS02001759           JUNCTION        0.68          1.055        0.155
  YS02001762           JUNCTION        0.65          1.027        0.123
  YS02001765           JUNCTION        0.60          0.980        0.120
  YS02001767           JUNCTION        0.57          0.949        0.081
  YS02001770           JUNCTION        0.55          0.920        0.000
  YS02001774           JUNCTION        0.63          1.032        0.018
  YS02001779           JUNCTION        0.44          0.680        0.000
  YS02001783           JUNCTION        0.55          0.463        1.137
  YS02001784           JUNCTION        0.53          0.338        1.152
  YS02001786           JUNCTION        0.42          0.091        1.339
  YS02001882           JUNCTION        0.50          0.695        0.135
  YS02001884           JUNCTION        0.51          0.736        0.134
  YS02001887           JUNCTION        0.54          0.843        0.107
  YS02001890           JUNCTION        0.56          0.760        0.000
  YS02001895           JUNCTION        0.49          0.575        0.175
  YS02001898           JUNCTION        0.48          0.549        0.191
  YS02001901           JUNCTION        0.53          0.687        0.183
  YS02001904           JUNCTION        0.52          0.652        0.198
  YS02001907           JUNCTION        0.81          0.950        0.000
  YS02001910           JUNCTION        0.59          0.986        0.114
  YS02001915           JUNCTION        0.50          0.977        0.023
  YS02001918           JUNCTION        0.41          0.810        0.000
  YS02001920           JUNCTION        0.42          1.140        0.000
  YS02001923           JUNCTION        0.13          0.820        0.000
  YS02001926           JUNCTION        0.18          0.900        0.000
  YS02001929           JUNCTION        0.01          0.780        0.000
  YS02006553           JUNCTION        0.82          1.004        0.186
  YS02006556           JUNCTION        0.68          1.019        0.331
  YS02006558           JUNCTION        0.67          1.033        0.367
  YS02006561           JUNCTION        0.37          0.144        1.006
  YS02163301           JUNCTION        0.93          0.935        0.095
  YS02163601           JUNCTION        0.98          1.064        0.016
  YS02164001           JUNCTION        0.89          0.976        0.124
  
  
  *********************
  Node Flooding Summary
  *********************
  
  Flooding refers to all water that overflows a node, whether it ponds or not.
  --------------------------------------------------------------------------
                                                             Total   Maximum
                                 Maximum   Time of Max       Flood    Ponded
                        Hours       Rate    Occurrence      Volume     Depth
  Node                 Flooded       LPS   days hr:min    10^6 ltr    Meters
  --------------------------------------------------------------------------
  WS02006234              0.01     89.82      0  02:12       0.000     0.000
  WS02006235              0.01     41.47      0  02:12       0.000     0.000
  WS02006239              0.01      4.46      0  02:12       0.000     0.000
  WS02006242              0.01     21.09      0  02:45       0.000     0.000
  WS02006248              0.01     20.41      0  02:12       0.000     0.000
  WS02006249              0.64     90.72      0  01:59       0.151     0.000
  WS02006252              0.01    253.58      0  01:55       0.000     0.000
  WS02006256              1.10    293.19      0  00:00       0.363     0.000
  YS02001580              0.01     45.81      0  02:10       0.000     0.000
  YS02001583              0.01     24.25      0  02:10       0.000     0.000
  YS02001586              0.50    567.66      0  02:26       0.444     0.000
  YS02001590              0.01     10.69      0  02:10       0.000     0.000
  YS02001600              0.01      2.51      0  02:10       0.000     0.000
  YS02001601              0.69   1476.14      0  02:25       1.516     0.000
  YS02001602              0.55     62.13      0  02:33       0.112     0.000
  YS02001610              0.48    888.81      0  02:26       0.782     0.000
  YS02001616              0.01      1.32      0  02:23       0.000     0.000
  YS02001619              0.01      3.74      0  02:25       0.000     0.000
  YS02001625              0.46   1457.12      0  02:26       1.254     0.000
  YS02001629              0.16    154.37      0  02:25       0.046     0.000
  YS02001633              0.01      1.34      0  02:23       0.000     0.000
  YS02001644              0.22   1471.82      0  02:25       0.565     0.000
  YS02001770              0.01     30.42      0  02:17       0.000     0.000
  YS02001779              0.19    795.08      0  02:25       0.271     0.000
  YS02001890              0.20    457.76      0  02:25       0.141     0.000
  YS02001907              0.36   2355.35      0  02:25       1.500     0.000
  YS02001918              0.01     93.92      0  02:17       0.001     0.000
  YS02001920              0.01     24.10      0  02:17       0.000     0.000
  YS02001923              0.01    112.55      0  02:17       0.000     0.000
  YS02001926              0.01     40.42      0  02:17       0.000     0.000
  YS02001929              0.01    210.02      0  02:17       0.000     0.000
  
  
  **********************
  Storage Volume Summary
  **********************
  
  ------------------------------------------------------------------------------------------------
                         Average    Avg   Evap  Exfil     Maximum    Max    Time of Max    Maximum
                          Volume   Pcnt   Pcnt   Pcnt      Volume   Pcnt     Occurrence    Outflow
  Storage Unit           1000 m³   Full   Loss   Loss     1000 m³   Full    days hr:min        LPS
  ------------------------------------------------------------------------------------------------
  CC-storage               2.168   33.8    0.0    0.0       4.598   71.7       0  02:47    1783.53
  JK-storage               0.082   28.0    0.0    0.0       0.212   72.9       0  02:25    2300.00
  
  
  ***********************
  Outfall Loading Summary
  ***********************
  
  -----------------------------------------------------------
                         Flow       Avg       Max       Total
                         Freq      Flow      Flow      Volume
  Outfall Node           Pcnt       LPS       LPS    10^6 ltr
  -----------------------------------------------------------
  CC-1                  37.30    683.00    683.00       4.663
  CC-2                  35.63    683.00    683.00       4.009
  JK-1                   8.85   1000.00   1000.00       1.327
  JK-2                  10.23   1000.00   1000.00       1.778
  WSC                   99.94    237.73    552.21       4.468
  -----------------------------------------------------------
  System                38.39   3603.73   3884.73      16.245
  
  
  ********************
  Link Flow Summary
  ********************
  
  -----------------------------------------------------------------------------
                                 Maximum  Time of Max   Maximum    Max/    Max/
                                  |Flow|   Occurrence   |Veloc|    Full    Full
  Link                 Type          LPS  days hr:min     m/sec    Flow   Depth
  -----------------------------------------------------------------------------
  1                    CONDUIT    552.21     0  03:10      2.82    0.19    0.30
  WS02003060WS02003069 CONDUIT    551.61     0  03:08      1.64    0.22    0.34
  WS02003066WSF200     CONDUIT    534.97     0  03:08      2.85    0.09    0.22
  WS02003067WS02003066 CONDUIT    534.87     0  03:07      1.20    0.17    0.42
  WS02003069WS02003072 CONDUIT    551.31     0  03:09      1.37    0.27    0.39
  WS02003072WS02003073 CONDUIT    550.92     0  03:09      1.43    1.19    0.37
  WS02004401WS02004402 CONDUIT    538.53     0  03:03      1.23    0.65    0.89
  WS02004402WS02004403 CONDUIT    541.84     0  03:06      1.26    0.78    0.91
  WS02004403WS02004404 CONDUIT    557.43     0  03:05      1.25    0.40    0.96
  WS02004404WS02004405 CONDUIT    599.89     0  03:01      1.48    5.88    0.98
  WS02004405WS02004406 CONDUIT    541.91     0  03:05      1.47    1.07    0.96
  WS02004406WS02004407 CONDUIT    537.88     0  03:06      1.04    0.24    0.63
  WS02004407WS02004409 CONDUIT    537.33     0  03:06      1.52    0.19    0.48
  WS02004409WS02004410 CONDUIT    536.49     0  03:06      0.97    0.69    0.67
  WS02004410WS02004411 CONDUIT    535.67     0  03:06      0.94    0.73    0.68
  WS02004411WS02004412 CONDUIT    535.33     0  03:07      0.96    0.76    0.69
  WS02004412WS02004413 CONDUIT    535.10     0  03:07      1.00    0.36    0.78
  WS02004413WS02003067 CONDUIT    534.70     0  03:07      1.11    0.23    0.59
  WS02006109WS02006110 CONDUIT    566.63     0  02:13      1.13    1.09    1.00
  WS02006110WS02006113 CONDUIT    575.01     0  02:13      1.40    0.52    0.78
  WS02006111WS02006112 CONDUIT    543.61     0  03:00      1.96    0.26    0.67
  WS02006112WS02006115 CONDUIT    553.96     0  02:57      0.82    0.33    0.88
  WS02006113WS02006111 CONDUIT    562.43     0  02:57      2.47    0.67    0.46
  WS02006115WS02006116 CONDUIT    540.18     0  03:01      1.28    0.69    0.78
  WS02006116WS02004401 CONDUIT    539.51     0  03:02      1.21    0.74    0.86
  WS02006228WS02006109 CONDUIT    562.86     0  02:13      1.12    2.46    1.00
  WS02006229WS02006228 CONDUIT    561.21     0  02:55      1.14    1.86    1.00
  WS02006230WS02006229 CONDUIT    561.31     0  02:55      1.46   12.49    1.00
  WS02006231WS02006230 CONDUIT    575.24     0  02:26      1.58    8.73    1.00
  WS02006232WS02006231 CONDUIT    619.48     0  02:12      1.66    1.30    1.00
  WS02006234WS02006232 CONDUIT    612.30     0  02:12      1.59    1.24    1.00
  WS02006235WS02006234 CONDUIT    593.33     0  02:12      1.54    6.26    1.00
  WS02006238WS02006235 CONDUIT    425.40     0  02:15      1.45    0.95    1.00
  WS02006239WS02006238 CONDUIT    425.02     0  02:15      1.10    1.36    1.00
  WS02006240WS02006239 CONDUIT    423.61     0  02:15      1.24    1.33    1.00
  WS02006242WS02006240 CONDUIT    419.89     0  02:00      1.13    1.67    1.00
  WS02006243WS02006242 CONDUIT    420.53     0  02:00      1.40    0.90    1.00
  WS02006245WS02006243 CONDUIT    420.72     0  03:16      1.45    1.24    1.00
  WS02006247WS02006245 CONDUIT    420.86     0  03:16      1.43    3.34    1.00
  WS02006248WS02006247 CONDUIT    420.52     0  03:16      1.45    0.92    1.00
  WS02006249WS02006248 CONDUIT    421.98     0  02:15      1.41    2.31    1.00
  WS02006251WS02006249 CONDUIT    473.58     0  01:55      1.99    1.37    1.00
  WS02006252WS02006251 CONDUIT    406.44     0  01:59     24.75    1.49    1.00
  WS02006256WS02006235 CONDUIT    288.91     0  00:00      4.23    3.06    1.00
  WSF200WS02003060     CONDUIT    535.35     0  03:08      2.06    0.12    0.28
  YS02001580YS02001583 CONDUIT     72.57     0  02:10      0.53    0.28    1.00
  YS02001583YS02001586 CONDUIT    118.63     0  02:10      0.52    0.18    1.00
  YS02001586YS02001590 CONDUIT    318.11     0  02:20      1.24    0.56    1.00
  YS02001590YS02001593 CONDUIT    318.10     0  02:20      1.13    2.00    1.00
  YS02001593YS02001596 CONDUIT    318.03     0  02:40      1.76    0.50    1.00
  YS02001596YS02001600 CONDUIT    318.17     0  02:20      1.28    0.62    1.00
  YS02001600YS02001601 CONDUIT    318.17     0  02:33      1.13    0.55    1.00
  YS02001601YS02001602 CONDUIT    493.03     0  02:10      1.74    1.78    1.00
  YS02001602YS02001605 CONDUIT    493.79     0  02:10      1.75   10.45    1.00
  YS02001605YS02001607 CONDUIT    494.61     0  02:10      1.75    2.71    1.00
  YS02001607YS02001610 CONDUIT    499.19     0  02:09      0.64    0.47    1.00
  YS02001610YS02001613 CONDUIT    553.34     0  02:26      0.70    0.64    1.00
  YS02001613YS02001616 CONDUIT    551.97     0  02:26      0.70    0.47    1.00
  YS02001616YS02001619 CONDUIT    552.96     0  02:26      0.70    0.96    1.00
  YS02001619YS02001622 CONDUIT   1033.46     0  02:25      1.32    1.52    1.00
  YS02001622YS02001625 CONDUIT   1033.73     0  02:25      1.32    0.55    1.00
  YS02001625YS02001629 CONDUIT    931.89     0  02:15      1.19    0.44    1.00
  YS02001629YS02163301 CONDUIT    933.15     0  02:15      1.19    1.15    1.00
  YS02001633YS02163601 CONDUIT   1358.53     0  02:15      1.73    1.43    1.00
  YS02001641YS02001644 CONDUIT   1358.41     0  02:15      1.73    4.39    1.00
  YS02001644YS02001647 CONDUIT   1741.86     0  02:15      2.24    1.02    1.00
  YS02001647YS02001649 CONDUIT   1747.37     0  02:15      2.32    0.92    1.00
  YS02001649YS02001757 CONDUIT   1995.00     0  02:16      2.55    1.21    1.00
  YS02001652YS02001649 CONDUIT   1055.20     0  02:25      1.34    0.52    1.00
  YS02001655YS02001652 CONDUIT   1055.36     0  02:25      1.34    0.51    1.00
  YS02001658YS02001655 CONDUIT   1055.31     0  02:25      1.84    0.45    1.00
  YS02001661YS02001658 CONDUIT   1055.46     0  02:25      2.26    0.41    1.00
  YS02001664YS02001661 CONDUIT   1055.74     0  02:25      2.23    0.33    0.84
  YS02001745YS02001748 CONDUIT    654.52     0  02:25      2.11    0.25    0.95
  YS02001748YS02001751 CONDUIT    654.72     0  02:24      1.63    0.33    1.00
  YS02001751YS02001754 CONDUIT    655.19     0  02:24      1.38    0.32    1.00
  YS02001754YS02001757 CONDUIT    655.90     0  02:24      0.84    0.26    1.00
  YS02001757CaochengTiaoxuchi CONDUIT   3339.58     0  02:21      4.25    1.45    1.00
  YS02001759YS02001757 CONDUIT   1399.51     0  02:24      1.78    0.99    1.00
  YS02001762YS02001759 CONDUIT    759.66     0  02:20      0.97    0.88    1.00
  YS02001765YS02001762 CONDUIT    759.59     0  02:20      0.97    0.71    1.00
  YS02001767YS02001765 CONDUIT    760.05     0  02:20      0.97    0.96    1.00
  YS02001770YS02001767 CONDUIT    760.22     0  02:20      0.97    3.01    1.00
  YS02001774YS02001770 CONDUIT    794.95     0  02:25      1.01    0.51    1.00
  YS02001779YS02001774 CONDUIT    795.11     0  02:25      1.01    0.40    1.00
  YS02001783YS02001784 CONDUIT   1167.79     0  02:23      2.32    1.61    1.00
  YS02001784YS02001785 CONDUIT   1169.82     0  02:23      2.33    2.72    1.00
  YS02001786YS02001788 CONDUIT   1171.03     0  02:23      2.49    2.26    0.89
  YS02001788YS02001790 CONDUIT   1176.94     0  02:23      2.71    0.87    0.84
  YS02001790YS02001791 CONDUIT   1293.64     0  02:21      3.43    1.41    0.70
  YS02001791YS02001793 CONDUIT   1253.56     0  02:21      6.70    0.54    0.44
  YS02001793JiankangQianchi CONDUIT   1255.98     0  02:24      2.51    0.10    0.65
  YS02001882YS02001884 CONDUIT     32.04     0  02:13      0.12    0.04    1.00
  YS02001884YS02001887 CONDUIT     42.25     0  02:12      0.09    0.06    1.00
  YS02001887YS02001890 CONDUIT    974.39     0  02:25      1.24    1.67    1.00
  YS02001890YS02001895 CONDUIT    518.78     0  02:27      0.66    0.24    1.00
  YS02001895YS02001898 CONDUIT    518.16     0  02:29      0.66    0.90    1.00
  YS02001898YS02001901 CONDUIT    518.14     0  02:28      0.66    0.33    1.00
  YS02001901YS02001904 CONDUIT    518.24     0  02:28      0.66    0.80    1.00
  YS02001904YS02001907 CONDUIT    519.36     0  02:23      0.66    0.18    1.00
  YS02001907YS02006553 CONDUIT    805.63     0  02:38      0.90    0.95    1.00
  YS02001910YS02001907 CONDUIT   1689.13     0  02:25      2.15    0.95    1.00
  YS02001915YS02001910 CONDUIT   1688.98     0  02:25      2.15    0.84    1.00
  YS02001918YS02001915 CONDUIT    561.85     0  02:25      0.72    0.31    1.00
  YS02001920YS02001918 CONDUIT    562.26     0  02:25      0.72    0.54    1.00
  YS02001923YS02001920 CONDUIT    558.77     0  02:25      0.71    0.25    1.00
  YS02001926YS02001923 CONDUIT    559.10     0  02:25      0.94    0.80    1.00
  YS02001929YS02001926 CONDUIT    558.99     0  02:25      1.08    0.27    1.00
  YS02006553YS02006556 CONDUIT    805.81     0  02:39      1.03    0.69    1.00
  YS02006556YS02006558 CONDUIT    807.02     0  02:39      1.03    0.64    1.00
  YS02006558YS02006561 CONDUIT   1168.01     0  02:23      4.13    2.58    1.00
  YS02006561YS02001783 CONDUIT   1167.89     0  02:23      2.32    0.60    1.00
  YS02163301YS02001633 CONDUIT    933.07     0  02:15      1.19    0.88    1.00
  YS02163601YS02164001 CONDUIT   1358.31     0  02:15      1.73    1.20    1.00
  YS02164001YS02001641 CONDUIT   1359.05     0  02:15      1.73    1.86    1.00
  CC-R1                PUMP       683.00     0  00:00              1.00
  CC-R2                PUMP       683.00     0  00:00              1.00
  CC-S1                PUMP       200.00     0  00:00              1.00
  CC-S2                PUMP       200.00     0  00:00              1.00
  JK-R1                PUMP      1000.00     0  00:00              1.00
  JK-R2                PUMP      1000.00     0  00:00              1.00
  JK-S                 PUMP       300.00     0  00:00              1.00
  
  
  ***************************
  Flow Classification Summary
  ***************************
  
  -------------------------------------------------------------------------------------
                      Adjusted    ---------- Fraction of Time in Flow Class ---------- 
                       /Actual         Up    Down  Sub   Sup   Up    Down  Norm  Inlet 
  Conduit               Length    Dry  Dry   Dry   Crit  Crit  Crit  Crit  Ltd   Ctrl  
  -------------------------------------------------------------------------------------
  1                       1.00   0.00  0.00  0.00  0.00  1.00  0.00  0.00  0.36  0.00
  WS02003060WS02003069    1.00   0.00  0.00  0.00  0.97  0.03  0.00  0.00  0.74  0.00
  WS02003066WSF200        1.00   0.05  0.00  0.00  0.00  0.94  0.00  0.00  0.87  0.00
  WS02003067WS02003066    1.00   0.05  0.00  0.00  0.95  0.00  0.00  0.00  0.00  0.00
  WS02003069WS02003072    1.00   0.00  0.00  0.00  0.99  0.01  0.00  0.00  0.76  0.00
  WS02003072WS02003073    1.00   0.00  0.00  0.00  0.00  0.00  0.00  1.00  0.00  0.00
  WS02004401WS02004402    1.00   0.02  0.00  0.00  0.98  0.00  0.00  0.00  0.00  0.00
  WS02004402WS02004403    1.00   0.02  0.00  0.00  0.98  0.00  0.00  0.00  0.00  0.00
  WS02004403WS02004404    1.00   0.00  0.03  0.00  0.97  0.00  0.00  0.00  0.00  0.00
  WS02004404WS02004405    1.00   0.00  0.00  0.00  1.00  0.00  0.00  0.00  0.01  0.00
  WS02004405WS02004406    1.00   0.00  0.00  0.00  1.00  0.00  0.00  0.00  0.00  0.00
  WS02004406WS02004407    1.00   0.00  0.03  0.00  0.97  0.00  0.00  0.00  0.00  0.00
  WS02004407WS02004409    1.00   0.03  0.00  0.00  0.96  0.01  0.00  0.00  0.96  0.00
  WS02004409WS02004410    1.00   0.03  0.00  0.00  0.96  0.00  0.00  0.00  0.00  0.00
  WS02004410WS02004411    1.00   0.03  0.00  0.00  0.96  0.00  0.00  0.00  0.00  0.00
  WS02004411WS02004412    1.00   0.04  0.00  0.00  0.96  0.00  0.00  0.00  0.00  0.00
  WS02004412WS02004413    1.00   0.04  0.00  0.00  0.96  0.00  0.00  0.00  0.00  0.00
  WS02004413WS02003067    1.00   0.04  0.01  0.00  0.00  0.00  0.95  0.00  0.00  0.00
  WS02006109WS02006110    1.00   0.00  0.01  0.00  0.98  0.00  0.01  0.00  0.00  0.00
  WS02006110WS02006113    1.00   0.01  0.01  0.00  0.98  0.00  0.00  0.00  0.00  0.00
  WS02006111WS02006112    1.00   0.02  0.00  0.00  0.98  0.00  0.00  0.00  0.98  0.00
  WS02006112WS02006115    1.00   0.02  0.00  0.00  0.97  0.00  0.00  0.00  0.00  0.00
  WS02006113WS02006111    1.00   0.02  0.00  0.00  0.00  0.98  0.00  0.00  0.11  0.00
  WS02006115WS02006116    1.00   0.02  0.00  0.00  0.97  0.00  0.00  0.01  0.00  0.00
  WS02006116WS02004401    1.00   0.02  0.00  0.00  0.98  0.00  0.00  0.00  0.00  0.00
  WS02006228WS02006109    1.00   0.00  0.00  0.00  1.00  0.00  0.00  0.00  0.00  0.00
  WS02006229WS02006228    1.00   0.00  0.00  0.00  0.99  0.00  0.00  0.01  0.00  0.00
  WS02006230WS02006229    1.00   0.00  0.00  0.00  0.99  0.00  0.00  0.01  0.03  0.00
  WS02006231WS02006230    1.00   0.00  0.00  0.00  0.24  0.00  0.76  0.00  0.00  0.00
  WS02006232WS02006231    1.00   0.00  0.00  0.00  0.99  0.00  0.01  0.00  0.00  0.00
  WS02006234WS02006232    1.00   0.00  0.00  0.00  1.00  0.00  0.00  0.00  0.05  0.00
  WS02006235WS02006234    1.00   0.00  0.00  0.00  0.89  0.00  0.11  0.00  0.00  0.00
  WS02006238WS02006235    1.00   0.00  0.00  0.00  1.00  0.00  0.00  0.00  0.01  0.00
  WS02006239WS02006238    1.00   0.00  0.00  0.00  1.00  0.00  0.00  0.00  0.13  0.00
  WS02006240WS02006239    1.00   0.00  0.00  0.00  0.65  0.00  0.00  0.35  0.05  0.00
  WS02006242WS02006240    1.00   0.00  0.00  0.00  0.99  0.00  0.01  0.00  0.00  0.00
  WS02006243WS02006242    1.00   0.00  0.00  0.00  0.99  0.00  0.00  0.00  0.63  0.00
  WS02006245WS02006243    1.00   0.00  0.00  0.00  0.82  0.00  0.00  0.18  0.01  0.00
  WS02006247WS02006245    1.00   0.00  0.00  0.00  0.95  0.00  0.00  0.05  0.00  0.00
  WS02006248WS02006247    1.00   0.00  0.00  0.00  0.98  0.00  0.00  0.02  0.60  0.00
  WS02006249WS02006248    1.00   0.00  0.00  0.00  0.42  0.00  0.58  0.00  0.00  0.00
  WS02006251WS02006249    1.00   0.00  0.00  0.00  0.99  0.01  0.00  0.00  0.60  0.00
  WS02006252WS02006251    1.00   0.06  0.53  0.00  0.08  0.00  0.32  0.00  0.00  0.00
  WS02006256WS02006235    1.00   0.00  0.00  0.00  0.98  0.02  0.00  0.00  0.01  0.00
  WSF200WS02003060        1.00   0.00  0.06  0.00  0.48  0.47  0.00  0.00  0.69  0.00
  YS02001580YS02001583    1.00   0.27  0.54  0.00  0.20  0.00  0.00  0.00  0.63  0.00
  YS02001583YS02001586    1.00   0.41  0.34  0.00  0.25  0.00  0.00  0.00  0.63  0.00
  YS02001586YS02001590    1.00   0.13  0.00  0.00  0.45  0.04  0.00  0.38  0.38  0.00
  YS02001590YS02001593    1.00   0.13  0.01  0.00  0.12  0.00  0.75  0.00  0.00  0.00
  YS02001593YS02001596    1.00   0.13  0.00  0.00  0.14  0.01  0.00  0.72  0.02  0.00
  YS02001596YS02001600    1.00   0.14  0.00  0.00  0.20  0.02  0.00  0.65  0.05  0.00
  YS02001600YS02001601    1.00   0.13  0.01  0.00  0.86  0.00  0.00  0.00  0.59  0.00
  YS02001601YS02001602    1.00   0.13  0.01  0.00  0.87  0.00  0.00  0.00  0.00  0.00
  YS02001602YS02001605    1.00   0.13  0.00  0.00  0.86  0.00  0.00  0.00  0.00  0.00
  YS02001605YS02001607    1.00   0.14  0.00  0.00  0.86  0.00  0.00  0.00  0.00  0.00
  YS02001607YS02001610    1.00   0.13  0.01  0.00  0.86  0.00  0.00  0.00  0.01  0.00
  YS02001610YS02001613    1.00   0.13  0.00  0.00  0.87  0.00  0.00  0.00  0.00  0.00
  YS02001613YS02001616    1.00   0.13  0.00  0.00  0.87  0.00  0.00  0.00  0.00  0.00
  YS02001616YS02001619    1.00   0.13  0.00  0.00  0.87  0.00  0.00  0.00  0.00  0.00
  YS02001619YS02001622    1.00   0.13  0.00  0.00  0.87  0.00  0.00  0.00  0.27  0.00
  YS02001622YS02001625    1.00   0.13  0.00  0.00  0.87  0.00  0.00  0.00  0.04  0.00
  YS02001625YS02001629    1.00   0.13  0.05  0.00  0.16  0.00  0.66  0.00  0.00  0.00
  YS02001629YS02163301    1.00   0.15  0.01  0.00  0.84  0.00  0.00  0.00  0.00  0.00
  YS02001633YS02163601    1.00   0.00  0.01  0.00  0.99  0.00  0.00  0.00  0.15  0.00
  YS02001641YS02001644    1.00   0.00  0.01  0.00  0.99  0.00  0.00  0.00  0.00  0.00
  YS02001644YS02001647    1.00   0.00  0.17  0.00  0.83  0.00  0.00  0.00  0.00  0.00
  YS02001647YS02001649    1.00   0.00  0.17  0.00  0.52  0.30  0.00  0.00  0.55  0.00
  YS02001649YS02001757    1.00   0.00  0.00  0.00  0.67  0.33  0.00  0.00  0.44  0.00
  YS02001652YS02001649    1.00   0.00  0.00  0.00  0.96  0.03  0.00  0.00  0.74  0.00
  YS02001655YS02001652    1.00   0.00  0.00  0.00  0.19  0.01  0.00  0.80  0.06  0.00
  YS02001658YS02001655    1.00   0.00  0.14  0.00  0.65  0.21  0.00  0.00  0.70  0.00
  YS02001661YS02001658    1.00   0.14  0.00  0.00  0.49  0.37  0.00  0.00  0.70  0.00
  YS02001664YS02001661    1.00   0.13  0.00  0.00  0.77  0.11  0.00  0.00  0.85  0.00
  YS02001745YS02001748    1.00   0.00  0.00  0.00  0.09  0.01  0.00  0.90  0.04  0.00
  YS02001748YS02001751    1.00   0.00  0.00  0.00  0.81  0.19  0.00  0.00  0.74  0.00
  YS02001751YS02001754    1.00   0.00  0.00  0.00  0.16  0.01  0.00  0.83  0.03  0.00
  YS02001754YS02001757    1.00   0.00  0.00  0.00  1.00  0.00  0.00  0.00  0.82  0.00
  YS02001757CaochengTiaoxuchi    1.00   0.00  0.00  0.00  0.94  0.06  0.00  0.00  0.78  0.00
  YS02001759YS02001757    1.00   0.00  0.00  0.00  1.00  0.00  0.00  0.00  0.59  0.00
  YS02001762YS02001759    1.00   0.00  0.00  0.00  1.00  0.00  0.00  0.00  0.05  0.00
  YS02001765YS02001762    1.00   0.00  0.00  0.00  1.00  0.00  0.00  0.00  0.72  0.00
  YS02001767YS02001765    1.00   0.00  0.00  0.00  1.00  0.00  0.00  0.00  0.00  0.00
  YS02001770YS02001767    1.00   0.00  0.00  0.00  1.00  0.00  0.00  0.00  0.00  0.00
  YS02001774YS02001770    1.00   0.00  0.13  0.00  0.71  0.00  0.16  0.00  0.03  0.00
  YS02001779YS02001774    1.00   0.00  0.00  0.00  1.00  0.00  0.00  0.00  0.75  0.00
  YS02001783YS02001784    1.00   0.00  0.18  0.00  0.82  0.00  0.00  0.00  0.55  0.00
  YS02001784YS02001785    1.00   0.00  0.00  0.00  1.00  0.00  0.00  0.00  0.17  0.00
  YS02001786YS02001788    1.00   0.00  0.00  0.00  0.79  0.21  0.00  0.00  0.00  0.00
  YS02001788YS02001790    1.00   0.00  0.00  0.00  0.21  0.79  0.00  0.00  0.80  0.00
  YS02001790YS02001791    1.00   0.00  0.00  0.00  0.01  0.99  0.00  0.00  0.16  0.00
  YS02001791YS02001793    1.00   0.00  0.00  0.00  0.00  1.00  0.00  0.00  0.01  0.00
  YS02001793JiankangQianchi    1.00   0.00  0.00  0.00  0.98  0.02  0.00  0.00  0.95  0.00
  YS02001882YS02001884    1.00   0.15  0.01  0.00  0.84  0.00  0.00  0.00  0.00  0.00
  YS02001884YS02001887    1.00   0.06  0.05  0.00  0.89  0.00  0.00  0.00  0.00  0.00
  YS02001887YS02001890    1.00   0.00  0.00  0.00  0.97  0.00  0.03  0.00  0.00  0.00
  YS02001890YS02001895    1.00   0.00  0.16  0.00  0.84  0.00  0.00  0.00  0.00  0.00
  YS02001895YS02001898    1.00   0.16  0.00  0.00  0.82  0.00  0.02  0.00  0.00  0.00
  YS02001898YS02001901    1.00   0.17  0.00  0.00  0.83  0.00  0.00  0.00  0.01  0.00
  YS02001901YS02001904    1.00   0.17  0.00  0.00  0.83  0.00  0.00  0.00  0.00  0.00
  YS02001904YS02001907    1.00   0.00  0.16  0.00  0.83  0.00  0.00  0.00  0.00  0.00
  YS02001907YS02006553    1.00   0.00  0.02  0.00  0.98  0.00  0.00  0.00  0.00  0.00
  YS02001910YS02001907    1.00   0.00  0.00  0.00  0.97  0.00  0.00  0.03  0.12  0.00
  YS02001915YS02001910    1.00   0.00  0.00  0.00  0.97  0.03  0.00  0.00  0.16  0.00
  YS02001918YS02001915    1.00   0.00  0.01  0.00  0.98  0.02  0.00  0.00  0.74  0.00
  YS02001920YS02001918    1.00   0.00  0.01  0.00  0.99  0.00  0.00  0.00  0.00  0.00
  YS02001923YS02001920    1.00   0.00  0.00  0.00  1.00  0.00  0.00  0.00  0.92  0.00
  YS02001926YS02001923    1.00   0.00  0.07  0.00  0.06  0.00  0.86  0.00  0.00  0.00
  YS02001929YS02001926    1.00   0.00  0.13  0.00  0.87  0.00  0.00  0.00  0.82  0.00
  YS02006553YS02006556    1.00   0.01  0.00  0.00  0.99  0.00  0.00  0.00  0.03  0.00
  YS02006556YS02006558    1.00   0.00  0.00  0.00  1.00  0.00  0.00  0.00  0.00  0.00
  YS02006558YS02006561    1.00   0.18  0.00  0.00  0.06  0.76  0.00  0.00  0.19  0.00
  YS02006561YS02001783    1.00   0.18  0.00  0.00  0.09  0.73  0.00  0.00  0.68  0.00
  YS02163301YS02001633    1.00   0.00  0.15  0.00  0.85  0.00  0.00  0.00  0.00  0.00
  YS02163601YS02164001    1.00   0.00  0.08  0.00  0.92  0.00  0.00  0.00  0.00  0.00
  YS02164001YS02001641    1.00   0.01  0.07  0.00  0.92  0.00  0.00  0.00  0.05  0.00
  
  
  *************************
  Conduit Surcharge Summary
  *************************
  
  ----------------------------------------------------------------------------
                                                           Hours        Hours 
                         --------- Hours Full --------   Above Full   Capacity
  Conduit                Both Ends  Upstream  Dnstream   Normal Flow   Limited
  ----------------------------------------------------------------------------
  WS02003072WS02003073        0.01      0.01      0.01      1.11         0.01
  WS02004403WS02004404        0.01      0.01      0.01      0.01         0.01
  WS02004404WS02004405        0.01      0.01      0.01      2.50         0.01
  WS02004405WS02004406        0.01      0.01      0.01      0.35         0.01
  WS02006109WS02006110        0.44      0.44      1.67      0.58         0.01
  WS02006110WS02006113        0.01      0.01      1.62      0.01         0.01
  WS02006111WS02006112        0.01      0.01      1.91      0.01         0.01
  WS02006112WS02006115        0.01      0.01      0.64      0.01         0.01
  WS02006228WS02006109        1.60      1.66      1.60      2.10         1.60
  WS02006229WS02006228        1.60      1.61      1.60      1.99         1.58
  WS02006230WS02006229        1.85      1.95      1.85      3.16         1.85
  WS02006231WS02006230        0.47      0.47      0.65      2.77         0.01
  WS02006232WS02006231        0.60      0.60      1.68      0.68         0.01
  WS02006234WS02006232        1.53      1.53      1.68      0.67         0.66
  WS02006235WS02006234        1.05      1.05      1.55      2.61         0.02
  WS02006238WS02006235        1.59      1.59      1.70      0.01         0.01
  WS02006239WS02006238        1.61      1.66      1.62      1.75         1.37
  WS02006240WS02006239        1.57      1.59      1.57      1.74         1.29
  WS02006242WS02006240        1.57      1.57      1.78      1.89         0.01
  WS02006243WS02006242        1.53      1.53      1.72      0.01         0.05
  WS02006245WS02006243        1.52      1.54      1.52      1.21         1.02
  WS02006247WS02006245        1.52      1.57      1.52      2.23         1.51
  WS02006248WS02006247        1.52      1.52      1.56      0.01         0.05
  WS02006249WS02006248        1.50      1.50      1.54      2.16         0.01
  WS02006251WS02006249        1.54      1.55      1.54      1.85         1.46
  WS02006252WS02006251        1.97      1.97      1.99      1.97         0.01
  WS02006256WS02006235        2.59      2.64      7.16      1.14         0.01
  YS02001580YS02001583        0.64      0.64      0.68      0.01         0.01
  YS02001583YS02001586        0.65      0.65      0.75      0.01         0.01
  YS02001586YS02001590        0.76      0.76      0.83      0.01         0.01
  YS02001590YS02001593        0.83      0.83      0.85      0.85         0.01
  YS02001593YS02001596        0.85      0.85      0.95      0.01         0.01
  YS02001596YS02001600        1.01      1.01      1.10      0.01         0.01
  YS02001600YS02001601        1.16      1.16      1.45      0.01         0.01
  YS02001601YS02001602        1.33      1.33      1.49      1.11         0.01
  YS02001602YS02001605        1.27      1.27      1.33      2.39         0.01
  YS02001605YS02001607        1.23      1.27      1.23      1.40         1.23
  YS02001607YS02001610        0.81      0.81      0.83      0.01         0.01
  YS02001610YS02001613        0.80      0.80      0.83      0.01         0.01
  YS02001613YS02001616        0.76      0.76      0.80      0.01         0.01
  YS02001616YS02001619        0.75      0.75      0.76      0.01         0.04
  YS02001619YS02001622        0.74      0.75      0.74      0.85         0.71
  YS02001622YS02001625        0.74      0.74      0.93      0.01         0.01
  YS02001625YS02001629        0.69      0.69      0.93      0.01         0.01
  YS02001629YS02163301        0.92      0.92      0.93      0.24         0.21
  YS02001633YS02163601        0.95      0.95      0.98      0.39         0.37
  YS02001641YS02001644        0.84      0.88      0.84      1.53         0.83
  YS02001644YS02001647        0.61      0.61      0.84      0.03         0.01
  YS02001647YS02001649        0.61      0.61      0.71      0.01         0.01
  YS02001649YS02001757        0.71      0.71      0.77      0.15         0.09
  YS02001652YS02001649        0.55      0.55      0.71      0.01         0.01
  YS02001655YS02001652        0.39      0.39      0.53      0.01         0.01
  YS02001658YS02001655        0.23      0.23      0.39      0.01         0.01
  YS02001661YS02001658        0.07      0.07      0.23      0.01         0.01
  YS02001664YS02001661        0.01      0.01      0.11      0.01         0.01
  YS02001745YS02001748        0.01      0.01      0.18      0.01         0.01
  YS02001748YS02001751        0.21      0.21      0.29      0.01         0.01
  YS02001751YS02001754        0.29      0.29      0.44      0.01         0.01
  YS02001754YS02001757        0.48      0.48      0.77      0.01         0.01
  YS02001757CaochengTiaoxuchi        0.71      0.77      1.18      0.42         0.30
  YS02001759YS02001757        0.68      0.68      0.77      0.01         0.02
  YS02001762YS02001759        0.65      0.65      0.68      0.01         0.02
  YS02001765YS02001762        0.60      0.60      0.65      0.01         0.01
  YS02001767YS02001765        0.57      0.57      0.60      0.01         0.02
  YS02001770YS02001767        0.57      0.57      0.57      0.56         0.41
  YS02001774YS02001770        0.55      0.55      0.63      0.01         0.01
  YS02001779YS02001774        0.44      0.44      0.63      0.01         0.01
  YS02001783YS02001784        0.53      0.55      0.53      0.72         0.53
  YS02001784YS02001785        0.42      0.53      0.42      0.97         0.42
  YS02001786YS02001788        0.01      0.42      0.01      0.84         0.01
  YS02001790YS02001791        0.01      0.01      0.01      0.51         0.01
  YS02001793JiankangQianchi        0.01      0.01      6.02      0.01         0.01
  YS02001882YS02001884        0.50      0.50      0.51      0.01         0.01
  YS02001884YS02001887        0.53      0.53      0.54      0.01         0.01
  YS02001887YS02001890        0.56      0.56      0.57      0.14         0.01
  YS02001890YS02001895        0.49      0.49      0.59      0.01         0.01
  YS02001895YS02001898        0.48      0.48      0.49      0.01         0.01
  YS02001898YS02001901        0.49      0.49      0.53      0.01         0.01
  YS02001901YS02001904        0.52      0.52      0.53      0.01         0.01
  YS02001904YS02001907        0.52      0.52      0.83      0.01         0.01
  YS02001907YS02006553        0.99      0.99      1.06      0.01         0.01
  YS02001910YS02001907        0.59      0.59      0.81      0.01         0.01
  YS02001915YS02001910        0.50      0.50      0.59      0.01         0.01
  YS02001918YS02001915        0.41      0.41      0.50      0.01         0.01
  YS02001920YS02001918        0.41      0.41      0.42      0.01         0.01
  YS02001923YS02001920        0.37      0.37      0.42      0.01         0.01
  YS02001926YS02001923        0.13      0.13      0.18      0.01         0.01
  YS02001929YS02001926        0.01      0.01      0.18      0.01         0.01
  YS02006553YS02006556        0.68      0.68      0.82      0.01         0.01
  YS02006556YS02006558        0.76      0.76      0.84      0.01         0.01
  YS02006558YS02006561        0.44      0.67      0.44      0.92         0.44
  YS02006561YS02001783        0.37      0.37      0.55      0.01         0.01
  YS02163301YS02001633        0.93      0.93      0.97      0.01         0.01
  YS02163601YS02164001        0.89      0.89      0.98      0.12         0.01
  YS02164001YS02001641        0.88      0.89      0.88      0.73         0.63
  
  
  ***************
  Pumping Summary
  ***************
  
  ---------------------------------------------------------------------------------------------------------
                                                  Min       Avg       Max     Total     Power    % Time Off
                        Percent   Number of      Flow      Flow      Flow    Volume     Usage    Pump Curve
  Pump                 Utilized   Start-Ups       LPS       LPS       LPS  10^6 ltr     Kw-hr    Low   High
  ---------------------------------------------------------------------------------------------------------
  CC-R1                   23.80          28      0.00    683.00    683.00     4.682     84.65    0.0   38.7
  CC-R2                   20.45          28      0.00    683.00    683.00     4.023     72.89    0.0   41.3
  CC-S1                   26.42          29      0.00    200.00    200.00     1.522      9.25    0.0    0.0
  CC-S2                   27.60          26      0.00    200.00    200.00     1.590      9.73    0.0    0.0
  JK-R1                    4.61          14      0.00   1000.00   1000.00     1.327     13.02    0.0    0.0
  JK-R2                    6.18          14      0.00   1000.00   1000.00     1.781     19.31    0.0    0.0
  JK-S                    13.68          41      0.00    300.00    300.00     1.182     20.19    0.0    0.0
  

  Analysis begun on:  Mon Dec 30 10:14:30 2024
  Analysis ended on:  Mon Dec 30 10:14:32 2024
  Total elapsed time: 00:00:02