
  EPA STORM WATER MANAGEMENT MODEL - VERSION 5.2 (Build 5.2.4)
  PYSWMM TOOLKIT API - VERSION v1.0 (2023-11-27)
  ------------------------------------------------------------

  WARNING 04: minimum elevation drop used for Conduit WS02004404WS02004405
  WARNING 03: negative offset ignored for Link YS02001904YS02001907
  
  ****************
  Analysis Options
  ****************
  Flow Units ............... LPS
  Process Models:
    Rainfall/Runoff ........ YES
    RDII ................... NO
    Snowmelt ............... NO
    Groundwater ............ NO
    Flow Routing ........... YES
    Ponding Allowed ........ NO
    Water Quality .......... NO
  Infiltration Method ...... HORTON
  Flow Routing Method ...... DYNWAVE
  Surcharge Method ......... EXTRAN
  Starting Date ............ 08/28/2015 08:00:00
  Ending Date .............. 08/28/2015 16:00:00
  Antecedent Dry Days ...... 8.0
  Report Time Step ......... 00:01:00
  Wet Time Step ............ 00:01:00
  Dry Time Step ............ 00:01:00
  Routing Time Step ........ 30.00 sec
  Variable Time Step ....... YES
  Maximum Trials ........... 8
  Number of Threads ........ 4
  Head Tolerance ........... 0.001500 m
  
  
  **************************        Volume         Depth
  Runoff Quantity Continuity     hectare-m            mm
  **************************     ---------       -------
  Total Precipitation ......         3.590       108.232
  Evaporation Loss .........         0.000         0.000
  Infiltration Loss ........         0.107         3.237
  Surface Runoff ...........         3.450       104.021
  Final Storage ............         0.033         0.998
  Continuity Error (%) .....        -0.021
  
  
  **************************        Volume        Volume
  Flow Routing Continuity        hectare-m      10^6 ltr
  **************************     ---------     ---------
  Dry Weather Inflow .......         0.025         0.251
  Wet Weather Inflow .......         3.450        34.503
  Groundwater Inflow .......         0.000         0.000
  RDII Inflow ..............         0.000         0.000
  External Inflow ..........         0.083         0.834
  External Outflow .........         2.021        20.206
  Flooding Loss ............         1.608        16.079
  Evaporation Loss .........         0.000         0.000
  Exfiltration Loss ........         0.000         0.000
  Initial Stored Volume ....         0.243         2.431
  Final Stored Volume ......         0.182         1.822
  Continuity Error (%) .....        -0.235
  
  
  *************************
  Highest Continuity Errors
  *************************
  Node YS02001884 (5.16%)
  Node YS02001583 (-2.33%)
  Node WS02006256 (-1.97%)
  
  
  ***************************
  Time-Step Critical Elements
  ***************************
  Link WS02006252WS02006251 (23.88%)
  Link WS02006238WS02006235 (21.44%)
  Link WS02004404WS02004405 (15.98%)
  Link YS02001791YS02001793 (10.85%)
  Link WS02006235WS02006234 (7.33%)
  
  
  ********************************
  Highest Flow Instability Indexes
  ********************************
  Link WS02006113WS02006111 (42)
  Link WS02006238WS02006235 (26)
  Link WS02006252WS02006251 (24)
  Link WS02006256WS02006235 (22)
  Link WS02006111WS02006112 (22)
  
  
  *********************************
  Most Frequent Nonconverging Nodes
  *********************************
  Node CC-1 (14.92%)
  Node CC-2 (14.92%)
  Node JK-1 (14.92%)
  Node JK-2 (14.92%)
  Node WSC (14.92%)
  
  
  *************************
  Routing Time Step Summary
  *************************
  Minimum Time Step           :     0.01 sec
  Average Time Step           :     2.45 sec
  Maximum Time Step           :     6.43 sec
  % of Time in Steady State   :     0.00
  Average Iterations per Step :     3.58
  % of Steps Not Converging   :    14.92
  Time Step Frequencies       :
     30.000 - 13.228 sec      :     0.00 %
     13.228 -  5.833 sec      :    10.84 %
      5.833 -  2.572 sec      :    23.25 %
      2.572 -  1.134 sec      :    33.57 %
      1.134 -  0.500 sec      :    32.34 %
  
  
  ***************************
  Subcatchment Runoff Summary
  ***************************
  
  ------------------------------------------------------------------------------------------------------------------------------
                            Total      Total      Total      Total     Imperv       Perv      Total       Total     Peak  Runoff
                           Precip      Runon       Evap      Infil     Runoff     Runoff     Runoff      Runoff   Runoff   Coeff
  Subcatchment                 mm         mm         mm         mm         mm         mm         mm    10^6 ltr      LPS
  ------------------------------------------------------------------------------------------------------------------------------
  sub60                    108.23       0.00       0.00       1.91      94.05      11.09     105.14        1.38   949.12   0.971
  sub61                    108.23       0.00       0.00       2.77      88.71      15.63     104.35        1.91  1321.64   0.964
  sub62                    108.23       0.00       0.00       1.27      98.30       7.39     105.69        2.90  1887.57   0.976
  sub63                    108.23       0.00       0.00       5.16      75.88      26.23     102.12        2.32  1540.55   0.943
  sub64                    108.23       0.00       0.00       2.60      90.80      13.64     104.43        2.51  1574.89   0.965
  sub65                    108.23       0.00       0.00       2.25      92.91      11.82     104.74        2.88  1768.07   0.968
  sub66                    108.23       0.00       0.00       6.48      75.77      24.91     100.68        4.69  2484.20   0.930
  sub67                    108.23       0.00       0.00       1.21      98.34       7.45     105.79        1.97  1393.49   0.977
  sub68                    108.23       0.00       0.00       2.30      91.90      12.86     104.76        2.88  1929.02   0.968
  sub69                    108.23       0.00       0.00       2.10      91.89      14.14     106.03        3.93  2352.09   0.980
  sub70                    108.23       0.00       0.00       7.12      71.27      29.68     100.95        2.92  1409.30   0.933
  sub71                    108.23       0.00       0.00       1.31      98.25       7.35     105.60        2.76  1698.07   0.976
  sub72                    108.23       0.00       0.00       1.17      99.25       6.41     105.67        1.45   836.35   0.976
  
  
  ******************
  Node Depth Summary
  ******************
  
  ---------------------------------------------------------------------------------
                                 Average  Maximum  Maximum  Time of Max    Reported
                                   Depth    Depth      HGL   Occurrence   Max Depth
  Node                 Type       Meters   Meters   Meters  days hr:min      Meters
  ---------------------------------------------------------------------------------
  WS02003060           JUNCTION     0.23     0.38     5.32     0  02:45        0.38
  WS02003066           JUNCTION     0.18     0.30     5.85     0  02:45        0.30
  WS02003067           JUNCTION     0.47     0.70     6.02     0  02:44        0.70
  WS02003069           JUNCTION     0.25     0.43     5.02     0  02:46        0.43
  WS02003072           JUNCTION     0.31     0.50     4.87     0  02:47        0.50
  WS02003073           JUNCTION     0.18     0.30     4.36     0  02:48        0.30
  WS02004401           JUNCTION     0.57     0.88     6.88     0  02:45        0.88
  WS02004402           JUNCTION     0.60     0.91     6.87     0  03:04        0.90
  WS02004403           JUNCTION     0.62     0.92     6.85     0  02:41        0.92
  WS02004404           JUNCTION     0.69     1.04     6.89     0  02:45        1.00
  WS02004405           JUNCTION     0.68     0.97     6.82     0  02:43        0.97
  WS02004406           JUNCTION     0.69     0.96     6.79     0  02:42        0.96
  WS02004407           JUNCTION     0.17     0.30     6.61     0  02:43        0.30
  WS02004409           JUNCTION     0.37     0.67     6.44     0  02:44        0.67
  WS02004410           JUNCTION     0.40     0.68     6.40     0  02:46        0.68
  WS02004411           JUNCTION     0.41     0.69     6.37     0  02:44        0.69
  WS02004412           JUNCTION     0.43     0.70     6.34     0  02:45        0.70
  WS02004413           JUNCTION     0.58     0.86     6.33     0  02:44        0.86
  WS02006109           JUNCTION     0.65     1.26     7.88     0  02:46        0.98
  WS02006110           JUNCTION     0.65     1.32     7.90     0  02:46        0.93
  WS02006111           JUNCTION     0.17     0.29     6.99     0  02:53        0.29
  WS02006112           JUNCTION     0.73     1.09     6.97     0  02:46        1.07
  WS02006113           JUNCTION     0.27     0.46     7.35     0  03:17        0.46
  WS02006115           JUNCTION     0.47     0.77     6.91     0  02:42        0.77
  WS02006116           JUNCTION     0.55     0.86     6.90     0  02:42        0.85
  WS02006228           JUNCTION     0.65     1.24     7.89     0  02:46        1.05
  WS02006229           JUNCTION     0.62     1.29     7.98     0  02:46        1.08
  WS02006230           JUNCTION     0.63     1.53     8.28     0  02:46        1.21
  WS02006231           JUNCTION     0.44     1.25     8.37     0  02:46        0.97
  WS02006232           JUNCTION     0.58     1.45     8.49     0  02:46        1.17
  WS02006234           JUNCTION     0.51     1.44     8.60     0  02:46        1.19
  WS02006235           JUNCTION     0.55     1.50     8.67     0  02:46        1.27
  WS02006238           JUNCTION     0.58     1.55     8.69     0  02:45        1.31
  WS02006239           JUNCTION     0.54     1.57     8.78     0  02:45        1.29
  WS02006240           JUNCTION     0.51     1.54     8.83     0  02:45        1.25
  WS02006242           JUNCTION     0.58     1.55     8.82     0  02:45        1.32
  WS02006243           JUNCTION     0.50     1.41     8.83     0  02:45        1.21
  WS02006245           JUNCTION     0.50     1.32     8.81     0  02:45        1.17
  WS02006247           JUNCTION     0.52     1.27     8.77     0  02:45        1.17
  WS02006248           JUNCTION     0.48     1.10     8.69     0  02:45        1.10
  WS02006249           JUNCTION     0.51     1.09     8.69     0  01:46        1.09
  WS02006251           JUNCTION     0.51     1.60     9.27     0  01:47        1.13
  WS02006252           JUNCTION     0.35     1.50     9.74     0  00:00        0.72
  WS02006256           JUNCTION     1.11     2.35     9.28     0  00:00        2.35
  WSF200               JUNCTION     0.16     0.29     5.52     0  02:45        0.29
  YS02001580           JUNCTION     0.16     0.92     9.46     0  01:57        0.77
  YS02001583           JUNCTION     0.19     0.95     9.45     0  01:57        0.82
  YS02001586           JUNCTION     0.31     1.13     9.30     0  01:57        1.13
  YS02001590           JUNCTION     0.42     1.38     9.24     0  02:11        1.38
  YS02001593           JUNCTION     0.35     1.31     9.18     0  02:47        1.31
  YS02001596           JUNCTION     0.48     1.66     9.08     0  01:57        1.65
  YS02001600           JUNCTION     0.58     1.87     9.00     0  02:47        1.87
  YS02001601           JUNCTION     0.77     2.06     8.90     0  01:57        2.06
  YS02001602           JUNCTION     0.67     1.87     8.77     0  02:04        1.87
  YS02001605           JUNCTION     0.62     1.78     8.68     0  02:10        1.78
  YS02001607           JUNCTION     0.58     1.68     8.52     0  02:47        1.65
  YS02001610           JUNCTION     0.62     1.68     8.48     0  02:05        1.68
  YS02001613           JUNCTION     0.58     1.67     8.51     0  02:24        1.66
  YS02001616           JUNCTION     0.52     1.61     8.52     0  02:19        1.61
  YS02001619           JUNCTION     0.50     1.61     8.54     0  02:17        1.61
  YS02001622           JUNCTION     0.49     1.61     8.52     0  02:27        1.61
  YS02001625           JUNCTION     0.73     1.78     8.38     0  02:05        1.78
  YS02001629           JUNCTION     0.63     1.85     8.40     0  02:08        1.85
  YS02001633           JUNCTION     0.71     2.08     8.53     0  02:24        2.08
  YS02001641           JUNCTION     0.67     2.02     8.45     0  02:29        2.00
  YS02001644           JUNCTION     0.66     1.92     8.35     0  02:10        1.92
  YS02001647           JUNCTION     0.45     1.80     8.41     0  02:29        1.79
  YS02001649           JUNCTION     0.51     2.05     8.44     0  02:23        2.05
  YS02001652           JUNCTION     0.39     1.98     8.58     0  02:24        1.98
  YS02001655           JUNCTION     0.30     1.86     8.71     0  02:24        1.86
  YS02001658           JUNCTION     0.23     1.69     8.83     0  02:24        1.69
  YS02001661           JUNCTION     0.23     1.55     8.96     0  02:24        1.55
  YS02001664           JUNCTION     0.10     1.16     9.08     0  02:24        1.15
  YS02001745           JUNCTION     0.13     1.13     8.65     0  02:24        1.11
  YS02001748           JUNCTION     0.22     1.51     8.59     0  02:24        1.51
  YS02001751           JUNCTION     0.26     1.66     8.54     0  02:24        1.66
  YS02001754           JUNCTION     0.35     1.88     8.49     0  02:24        1.88
  YS02001757           JUNCTION     0.53     2.17     8.43     0  02:24        2.17
  YS02001759           JUNCTION     0.47     2.17     8.54     0  02:29        2.17
  YS02001762           JUNCTION     0.46     2.15     8.55     0  02:29        2.12
  YS02001765           JUNCTION     0.44     2.10     8.55     0  02:29        2.05
  YS02001767           JUNCTION     0.43     2.03     8.52     0  02:29        1.99
  YS02001770           JUNCTION     0.44     1.95     8.44     0  02:20        1.95
  YS02001774           JUNCTION     0.50     2.01     8.44     0  02:27        2.01
  YS02001779           JUNCTION     0.33     1.68     8.37     0  02:13        1.68
  YS02001783           JUNCTION     0.34     1.29     7.43     0  02:29        1.29
  YS02001784           JUNCTION     0.35     1.17     7.24     0  02:29        1.14
  YS02001786           JUNCTION     0.29     0.92     6.95     0  02:29        0.88
  YS02001788           JUNCTION     0.21     0.63     6.60     0  02:24        0.62
  YS02001790           JUNCTION     0.25     0.73     6.37     0  02:19        0.73
  YS02001791           JUNCTION     0.15     0.44     5.91     0  02:21        0.44
  YS02001793           JUNCTION     0.08     0.31     5.14     0  02:19        0.28
  YS02001882           JUNCTION     0.42     1.83     8.55     0  02:27        1.72
  YS02001884           JUNCTION     0.51     1.89     8.51     0  02:29        1.82
  YS02001887           JUNCTION     0.58     1.91     8.45     0  02:24        1.91
  YS02001890           JUNCTION     0.61     1.81     8.32     0  02:07        1.81
  YS02001895           JUNCTION     0.39     1.62     8.36     0  02:27        1.62
  YS02001898           JUNCTION     0.40     1.59     8.33     0  02:27        1.59
  YS02001901           JUNCTION     0.50     1.75     8.36     0  02:27        1.75
  YS02001904           JUNCTION     0.48     1.64     8.27     0  02:11        1.64
  YS02001907           JUNCTION     0.78     1.96     8.25     0  02:07        1.96
  YS02001910           JUNCTION     0.61     2.09     8.60     0  02:27        2.09
  YS02001915           JUNCTION     0.44     2.00     8.72     0  02:22        2.00
  YS02001918           JUNCTION     0.27     1.75     8.81     0  02:25        1.74
  YS02001920           JUNCTION     0.35     1.85     8.86     0  02:25        1.84
  YS02001923           JUNCTION     0.21     1.64     8.90     0  02:25        1.63
  YS02001926           JUNCTION     0.23     1.49     8.94     0  02:25        1.49
  YS02001929           JUNCTION     0.15     1.29     8.99     0  02:24        1.29
  YS02006553           JUNCTION     0.79     2.02     8.30     0  02:29        2.01
  YS02006556           JUNCTION     0.76     2.05     8.36     0  02:29        2.02
  YS02006558           JUNCTION     0.80     2.09     8.36     0  02:24        2.09
  YS02006561           JUNCTION     0.22     0.97     7.63     0  02:29        0.94
  YS02163301           JUNCTION     0.65     1.95     8.46     0  02:29        1.95
  YS02163601           JUNCTION     0.73     2.08     8.48     0  02:08        2.08
  YS02164001           JUNCTION     0.66     2.05     8.51     0  02:29        2.01
  CC-1                 OUTFALL      0.00     0.00     0.00     0  00:00        0.00
  CC-2                 OUTFALL      0.00     0.00     0.00     0  00:00        0.00
  JK-1                 OUTFALL      0.00     0.00     0.00     0  00:00        0.00
  JK-2                 OUTFALL      0.00     0.00     0.00     0  00:00        0.00
  WSC                  OUTFALL      0.17     0.30     0.97     0  02:48        0.30
  CC-storage           STORAGE      0.88     1.92     7.42     0  02:50        1.92
  JK-storage           STORAGE      1.56     4.22     5.02     0  02:19        4.19
  
  
  *******************
  Node Inflow Summary
  *******************
  
  -------------------------------------------------------------------------------------------------
                                  Maximum  Maximum                  Lateral       Total        Flow
                                  Lateral    Total  Time of Max      Inflow      Inflow     Balance
                                   Inflow   Inflow   Occurrence      Volume      Volume       Error
  Node                 Type           LPS      LPS  days hr:min    10^6 ltr    10^6 ltr     Percent
  -------------------------------------------------------------------------------------------------
  WS02003060           JUNCTION     16.53   556.09     0  02:45       0.476        5.39       0.044
  WS02003066           JUNCTION      0.00   539.21     0  02:45           0        4.91       0.031
  WS02003067           JUNCTION      0.00   539.10     0  02:44           0        4.92       0.086
  WS02003069           JUNCTION      0.32   556.26     0  02:46     0.00922         5.4       0.077
  WS02003072           JUNCTION      0.00   556.02     0  02:46           0        5.39       0.136
  WS02003073           JUNCTION      1.82   557.77     0  02:47      0.0524        5.44       0.109
  WS02004401           JUNCTION      0.00   541.67     0  03:05           0        5.02       0.208
  WS02004402           JUNCTION      0.00   544.35     0  03:04           0        5.01       0.210
  WS02004403           JUNCTION      0.00   543.52     0  03:04           0           5       0.204
  WS02004404           JUNCTION      0.16   561.00     0  02:41     0.00467        4.99       0.131
  WS02004405           JUNCTION      0.04   608.46     0  02:45      0.0011        4.99       0.200
  WS02004406           JUNCTION      0.00   548.19     0  02:42           0        4.98       0.424
  WS02004407           JUNCTION      0.00   541.44     0  02:42           0        4.95       0.024
  WS02004409           JUNCTION      0.00   540.46     0  02:43           0        4.95       0.056
  WS02004410           JUNCTION      0.00   539.93     0  02:43           0        4.95       0.093
  WS02004411           JUNCTION      0.00   539.75     0  02:43           0        4.95       0.117
  WS02004412           JUNCTION      0.00   539.48     0  02:44           0        4.94       0.155
  WS02004413           JUNCTION      0.00   539.37     0  02:44           0        4.93       0.281
  WS02006109           JUNCTION      1.23   560.95     0  02:46      0.0354        5.06       0.141
  WS02006110           JUNCTION      0.00   561.41     0  02:46           0        5.06       0.137
  WS02006111           JUNCTION      0.00   562.45     0  03:17           0        5.05       0.016
  WS02006112           JUNCTION      0.00   543.09     0  02:53           0        5.05       0.382
  WS02006113           JUNCTION      0.00   568.59     0  02:46           0        5.05       0.039
  WS02006115           JUNCTION      0.00   553.37     0  02:15           0        5.03       0.139
  WS02006116           JUNCTION      0.00   540.06     0  02:45           0        5.02       0.092
  WS02006228           JUNCTION      0.00   559.47     0  02:46           0        5.03       0.087
  WS02006229           JUNCTION      0.00   559.10     0  02:46           0        5.04       0.107
  WS02006230           JUNCTION     10.28   586.51     0  03:25       0.296        5.04       0.084
  WS02006231           JUNCTION      0.00   573.43     0  02:19           0        4.75       0.037
  WS02006232           JUNCTION      0.00   572.74     0  02:19           0        4.76       0.156
  WS02006234           JUNCTION      0.00   568.23     0  02:19           0        4.74      -0.308
  WS02006235           JUNCTION      0.00   562.19     0  02:19           0        4.85       0.296
  WS02006238           JUNCTION      0.00   428.35     0  03:41           0        3.72      -0.111
  WS02006239           JUNCTION      0.00   428.14     0  03:41           0        3.65      -0.075
  WS02006240           JUNCTION      0.00   425.81     0  03:41           0        3.61      -0.019
  WS02006242           JUNCTION      0.00   425.22     0  03:41           0         3.6       0.011
  WS02006243           JUNCTION      0.00   425.09     0  03:40           0         3.6      -0.181
  WS02006245           JUNCTION      0.00   426.63     0  03:40           0        3.61       0.415
  WS02006247           JUNCTION      0.00   426.73     0  03:40           0        3.61      -0.030
  WS02006248           JUNCTION      0.00   427.48     0  03:40           0        3.61      -0.088
  WS02006249           JUNCTION      0.00   471.88     0  01:35           0        3.89       0.406
  WS02006251           JUNCTION      0.08   406.65     0  02:09     0.00222        3.89       0.062
  WS02006252           JUNCTION      0.00   400.00     0  00:00           0        3.87      -0.429
  WS02006256           JUNCTION      0.00   300.00     0  00:00           0        1.65      -1.935
  WSF200               JUNCTION      0.00   539.27     0  02:45           0        4.91       0.010
  YS02001580           JUNCTION      0.00    51.91     0  01:57           0     0.00419       1.106
  YS02001583           JUNCTION      0.00    85.21     0  01:57           0      0.0161      -2.276
  YS02001586           JUNCTION   1409.30  1409.30     0  02:26        2.92        2.93       0.027
  YS02001590           JUNCTION      0.00   318.19     0  02:27           0        1.78      -0.030
  YS02001593           JUNCTION      0.00   318.05     0  02:47           0        1.78       0.008
  YS02001596           JUNCTION      0.00   318.00     0  02:48           0        1.78      -0.001
  YS02001600           JUNCTION      0.00   318.10     0  02:27           0        1.78       0.020
  YS02001601           JUNCTION   2352.09  2669.67     0  02:25        3.92         5.7       0.013
  YS02001602           JUNCTION      0.00   499.27     0  01:57           0        2.85       0.020
  YS02001605           JUNCTION      0.00   498.95     0  01:57           0        2.66       0.027
  YS02001607           JUNCTION      0.00   498.52     0  01:57           0        2.65       0.072
  YS02001610           JUNCTION      0.00   954.30     0  02:29           0        3.38       0.071
  YS02001613           JUNCTION      0.00   617.25     0  02:28           0        2.59       0.059
  YS02001616           JUNCTION      0.00   617.47     0  02:29           0        2.59       0.017
  YS02001619           JUNCTION   2484.20  2484.20     0  02:26        4.69        6.55      -0.000
  YS02001622           JUNCTION      0.00  1053.98     0  02:28           0         5.5       0.001
  YS02001625           JUNCTION      0.00  1505.45     0  02:29           0        6.05       0.176
  YS02001629           JUNCTION      0.00   968.21     0  02:25           0         4.3       0.007
  YS02001633           JUNCTION   1768.27  1768.27     0  02:25        2.89        6.44       0.054
  YS02001641           JUNCTION      0.00  1321.63     0  02:05           0        5.69       0.050
  YS02001644           JUNCTION   1574.93  3114.26     0  02:25        2.51        8.39       0.040
  YS02001647           JUNCTION      0.00  1670.53     0  02:05           0        6.67       0.006
  YS02001649           JUNCTION      0.00  1891.67     0  02:08           0        8.79       0.007
  YS02001652           JUNCTION      0.00  1541.59     0  02:25           0        2.32      -0.048
  YS02001655           JUNCTION      0.15  1541.37     0  02:25     0.00443        2.32       0.016
  YS02001658           JUNCTION      0.00  1540.75     0  02:25           0        2.32      -0.011
  YS02001661           JUNCTION      0.00  1540.23     0  02:25           0        2.32      -0.001
  YS02001664           JUNCTION   1540.55  1540.55     0  02:25        2.32        2.32      -0.008
  YS02001745           JUNCTION    949.13   949.13     0  02:25        1.38        1.38       0.092
  YS02001748           JUNCTION      0.04   949.80     0  02:25      0.0013        1.38      -0.139
  YS02001751           JUNCTION      0.01   950.03     0  02:25    0.000317        1.39       0.043
  YS02001754           JUNCTION      0.26   950.48     0  02:25     0.00749        1.39      -0.099
  YS02001757           JUNCTION      0.00  3074.47     0  02:15           0        13.8       0.029
  YS02001759           JUNCTION   1321.68  1357.25     0  02:23        1.92        3.84      -0.003
  YS02001762           JUNCTION      0.00   715.74     0  02:14           0        1.93       0.014
  YS02001765           JUNCTION      0.00   715.46     0  02:14           0        1.93       0.009
  YS02001767           JUNCTION      0.54   715.65     0  02:14      0.0154        1.93       0.008
  YS02001770           JUNCTION   1887.72  1935.09     0  02:25         2.9        2.94      -0.007
  YS02001774           JUNCTION      0.00   852.08     0  02:28           0       0.766       0.172
  YS02001779           JUNCTION      0.01   851.76     0  02:27    0.000144       0.723      -0.012
  YS02001783           JUNCTION      0.00  1184.48     0  02:24           0        5.45       0.006
  YS02001784           JUNCTION      1.06  1185.44     0  02:25      0.0305        5.48       0.011
  YS02001786           JUNCTION      0.06  1185.56     0  02:25     0.00162        5.49       0.013
  YS02001788           JUNCTION      0.07  1186.90     0  02:24     0.00204        5.49       0.006
  YS02001790           JUNCTION      0.15  1192.18     0  02:24     0.00446        5.49       0.032
  YS02001791           JUNCTION      0.00  1291.93     0  02:19           0        5.49      -0.043
  YS02001793           JUNCTION      0.00  1251.38     0  02:20           0        5.49       0.005
  YS02001882           JUNCTION      0.00    43.60     0  02:29           0      0.0139       5.438
  YS02001884           JUNCTION      0.00    59.48     0  02:29           0      0.0503       5.446
  YS02001887           JUNCTION   1393.94  1393.94     0  02:25        1.98        2.01       0.224
  YS02001890           JUNCTION      0.00  1394.40     0  02:25           0        1.97       0.271
  YS02001895           JUNCTION      0.00   521.12     0  02:29           0        1.56       0.120
  YS02001898           JUNCTION      0.00   519.30     0  02:29           0        1.56       0.002
  YS02001901           JUNCTION      0.00   518.03     0  02:30           0        1.56       0.214
  YS02001904           JUNCTION      0.00   517.79     0  02:27           0        1.57       0.197
  YS02001907           JUNCTION      0.00  3256.43     0  02:25           0        5.97       0.298
  YS02001910           JUNCTION      0.00  1993.21     0  02:27           0        4.17       0.181
  YS02001915           JUNCTION   1698.09  2540.48     0  02:25        2.76        4.31       0.041
  YS02001918           JUNCTION      0.00   844.32     0  02:25           0        1.55       0.024
  YS02001920           JUNCTION      2.87   843.43     0  02:25      0.0827        1.55       0.069
  YS02001923           JUNCTION      0.04   838.40     0  02:25     0.00109        1.46       0.005
  YS02001926           JUNCTION      0.05   837.50     0  02:25      0.0015        1.46      -0.001
  YS02001929           JUNCTION    836.35   836.35     0  02:25        1.45        1.45      -0.016
  YS02006553           JUNCTION      0.00   805.50     0  02:44           0        3.06       0.389
  YS02006556           JUNCTION      0.00   805.47     0  02:44           0        3.07       0.262
  YS02006558           JUNCTION   1929.90  1929.90     0  02:25        2.91        5.72       0.062
  YS02006561           JUNCTION      0.00  1184.45     0  02:25           0        5.45      -0.001
  YS02163301           JUNCTION      0.00   967.81     0  02:25           0        4.31       0.036
  YS02163601           JUNCTION      0.11  1320.40     0  02:05     0.00317        5.68       0.086
  YS02164001           JUNCTION      0.00  1320.79     0  02:05           0        5.68       0.038
  CC-1                 OUTFALL       0.00   683.00     0  00:00           0        6.17       0.000
  CC-2                 OUTFALL       0.00   683.00     0  00:00           0        4.64       0.000
  JK-1                 OUTFALL       0.00  1000.00     0  00:00           0        2.84       0.000
  JK-2                 OUTFALL       0.00  1000.00     0  00:00           0        1.13       0.000
  WSC                  OUTFALL       0.00   557.66     0  02:48           0        5.43       0.000
  CC-storage           STORAGE       0.00  3073.56     0  02:15           0          16      -0.193
  JK-storage           STORAGE       0.00  1291.79     0  02:20           0        5.64      -0.293
  
  
  **********************
  Node Surcharge Summary
  **********************
  
  Surcharging occurs when water rises above the top of the highest conduit.
  ---------------------------------------------------------------------
                                               Max. Height   Min. Depth
                                   Hours       Above Crown    Below Rim
  Node                 Type      Surcharged         Meters       Meters
  ---------------------------------------------------------------------
  WS02004404           JUNCTION        0.03          0.038        2.742
  WS02006109           JUNCTION        2.10          0.442        1.378
  WS02006110           JUNCTION        0.91          0.408        1.442
  WS02006112           JUNCTION        1.00          0.089        1.591
  WS02006228           JUNCTION        2.08          0.412        1.788
  WS02006229           JUNCTION        2.12          0.490        1.960
  WS02006230           JUNCTION        0.93          0.451        1.119
  WS02006231           JUNCTION        1.04          0.540        0.990
  WS02006232           JUNCTION        2.25          0.753        0.727
  WS02006234           JUNCTION        1.38          0.723        0.517
  WS02006235           JUNCTION        2.10          0.792        0.498
  WS02006238           JUNCTION        2.17          0.827        0.603
  WS02006239           JUNCTION        2.05          0.829        0.461
  WS02006240           JUNCTION        2.06          0.830        0.560
  WS02006242           JUNCTION        2.16          0.820        0.000
  WS02006243           JUNCTION        2.07          0.701        0.069
  WS02006245           JUNCTION        2.06          0.614        0.236
  WS02006247           JUNCTION        2.08          0.559        0.201
  WS02006248           JUNCTION        2.04          0.380        0.000
  WS02006249           JUNCTION        2.05          0.390        0.000
  WS02006251           JUNCTION        1.10          0.567        0.613
  WS02006252           JUNCTION        2.46          1.100        0.000
  WS02006256           JUNCTION        7.29          2.050        0.000
  YS02001580           JUNCTION        1.01          0.324        0.126
  YS02001583           JUNCTION        1.01          0.315        0.185
  YS02001586           JUNCTION        1.13          0.510        0.000
  YS02001590           JUNCTION        1.21          0.725        0.025
  YS02001593           JUNCTION        1.21          0.693        0.147
  YS02001596           JUNCTION        1.34          0.929        0.141
  YS02001600           JUNCTION        1.52          1.190        0.000
  YS02001601           JUNCTION        1.87          1.440        0.000
  YS02001602           JUNCTION        1.77          1.270        0.000
  YS02001605           JUNCTION        1.72          1.180        0.000
  YS02001607           JUNCTION        1.20          0.676        0.004
  YS02001610           JUNCTION        1.23          0.680        0.000
  YS02001613           JUNCTION        1.19          0.669        0.031
  YS02001616           JUNCTION        1.15          0.610        0.000
  YS02001619           JUNCTION        1.14          0.610        0.000
  YS02001622           JUNCTION        1.14          0.612        0.008
  YS02001625           JUNCTION        1.33          0.780        0.000
  YS02001629           JUNCTION        1.06          0.470        0.000
  YS02001633           JUNCTION        1.38          1.060        0.000
  YS02001641           JUNCTION        1.31          1.018        0.082
  YS02001644           JUNCTION        1.27          0.920        0.000
  YS02001647           JUNCTION        1.00          0.795        0.105
  YS02001649           JUNCTION        1.11          1.050        0.000
  YS02001652           JUNCTION        0.95          0.950        0.180
  YS02001655           JUNCTION        0.80          0.855        0.345
  YS02001658           JUNCTION        0.48          0.691        0.609
  YS02001661           JUNCTION        0.20          0.482        0.908
  YS02001664           JUNCTION        0.04          0.160        1.150
  YS02001745           JUNCTION        0.04          0.128        1.222
  YS02001748           JUNCTION        0.40          0.432        0.758
  YS02001751           JUNCTION        0.65          0.661        0.539
  YS02001754           JUNCTION        0.89          0.832        0.318
  YS02001757           JUNCTION        1.18          1.167        0.043
  YS02001759           JUNCTION        1.09          1.172        0.038
  YS02001762           JUNCTION        1.06          1.150        0.000
  YS02001765           JUNCTION        1.03          1.100        0.000
  YS02001767           JUNCTION        1.00          1.030        0.000
  YS02001770           JUNCTION        0.97          0.920        0.000
  YS02001774           JUNCTION        1.05          1.013        0.037
  YS02001779           JUNCTION        0.88          0.680        0.000
  YS02001783           JUNCTION        0.84          0.494        1.106
  YS02001784           JUNCTION        0.81          0.373        1.117
  YS02001786           JUNCTION        0.67          0.121        1.309
  YS02001882           JUNCTION        0.77          0.830        0.000
  YS02001884           JUNCTION        0.78          0.831        0.039
  YS02001887           JUNCTION        0.82          0.860        0.090
  YS02001890           JUNCTION        0.85          0.760        0.000
  YS02001895           JUNCTION        0.75          0.618        0.132
  YS02001898           JUNCTION        0.74          0.561        0.179
  YS02001901           JUNCTION        0.81          0.749        0.121
  YS02001904           JUNCTION        0.80          0.639        0.211
  YS02001907           JUNCTION        1.18          0.950        0.000
  YS02001910           JUNCTION        0.89          1.092        0.008
  YS02001915           JUNCTION        0.76          1.000        0.000
  YS02001918           JUNCTION        0.66          0.745        0.065
  YS02001920           JUNCTION        0.67          0.849        0.291
  YS02001923           JUNCTION        0.27          0.430        0.390
  YS02001926           JUNCTION        0.32          0.495        0.405
  YS02001929           JUNCTION        0.16          0.295        0.485
  YS02006553           JUNCTION        1.22          1.018        0.172
  YS02006556           JUNCTION        1.02          1.010        0.340
  YS02006558           JUNCTION        0.99          0.990        0.410
  YS02006561           JUNCTION        0.61          0.172        0.978
  YS02163301           JUNCTION        1.34          0.948        0.082
  YS02163601           JUNCTION        1.42          1.080        0.000
  YS02164001           JUNCTION        1.31          1.051        0.049
  
  
  *********************
  Node Flooding Summary
  *********************
  
  Flooding refers to all water that overflows a node, whether it ponds or not.
  --------------------------------------------------------------------------
                                                             Total   Maximum
                                 Maximum   Time of Max       Flood    Ponded
                        Hours       Rate    Occurrence      Volume     Depth
  Node                 Flooded       LPS   days hr:min    10^6 ltr    Meters
  --------------------------------------------------------------------------
  WS02006242              0.01      4.61      0  02:45       0.000     0.000
  WS02006248              0.01     23.37      0  02:45       0.000     0.000
  WS02006249              1.07    117.70      0  01:47       0.263     0.000
  WS02006252              0.01    245.63      0  00:00       0.000     0.000
  WS02006256              1.52    293.19      0  00:00       0.523     0.000
  YS02001586              0.81   1091.56      0  02:26       1.140     0.000
  YS02001600              0.01      0.07      0  02:47       0.000     0.000
  YS02001601              1.07   2271.17      0  02:25       2.854     0.000
  YS02001602              0.90     62.65      0  02:47       0.190     0.000
  YS02001605              0.01      0.66      0  02:47       0.000     0.000
  YS02001610              0.82    953.71      0  02:29       1.529     0.000
  YS02001616              0.08      1.60      0  02:32       0.000     0.000
  YS02001619              0.20    817.00      0  02:26       0.311     0.000
  YS02001625              0.78   1505.24      0  02:31       2.493     0.000
  YS02001629              0.27    517.03      0  02:25       0.205     0.000
  YS02001633              0.01      0.25      0  02:24       0.000     0.000
  YS02001644              0.42   3113.73      0  02:25       1.920     0.000
  YS02001649              0.01     17.55      0  02:24       0.000     0.000
  YS02001762              0.01     18.62      0  02:29       0.000     0.000
  YS02001765              0.01     10.60      0  02:29       0.000     0.000
  YS02001767              0.01     11.94      0  02:29       0.000     0.000
  YS02001770              0.15   1084.33      0  02:25       0.285     0.000
  YS02001779              0.37    851.47      0  02:27       0.705     0.000
  YS02001882              0.01     18.30      0  02:27       0.000     0.000
  YS02001890              0.34    877.44      0  02:25       0.406     0.000
  YS02001907              0.59   3256.22      0  02:25       3.132     0.000
  YS02001915              0.11    547.99      0  02:25       0.123     0.000
  YS02163601              0.01     39.63      0  02:29       0.000     0.000
  
  
  **********************
  Storage Volume Summary
  **********************
  
  ------------------------------------------------------------------------------------------------
                         Average    Avg   Evap  Exfil     Maximum    Max    Time of Max    Maximum
                          Volume   Pcnt   Pcnt   Pcnt      Volume   Pcnt     Occurrence    Outflow
  Storage Unit           1000 m³   Full   Loss   Loss     1000 m³   Full    days hr:min        LPS
  ------------------------------------------------------------------------------------------------
  CC-storage               2.452   38.3    0.0    0.0       5.359   83.6       0  02:50    1783.53
  JK-storage               0.078   26.8    0.0    0.0       0.212   72.8       0  02:19    2300.00
  
  
  ***********************
  Outfall Loading Summary
  ***********************
  
  -----------------------------------------------------------
                         Flow       Avg       Max       Total
                         Freq      Flow      Flow      Volume
  Outfall Node           Pcnt       LPS       LPS    10^6 ltr
  -----------------------------------------------------------
  CC-1                  49.25    683.00    683.00       6.168
  CC-2                  31.33    683.00    683.00       4.638
  JK-1                  15.04   1000.00   1000.00       2.838
  JK-2                   5.20   1000.00   1000.00       1.132
  WSC                   99.95    250.26    557.66       5.430
  -----------------------------------------------------------
  System                40.15   3616.26   3922.36      20.206
  
  
  ********************
  Link Flow Summary
  ********************
  
  -----------------------------------------------------------------------------
                                 Maximum  Time of Max   Maximum    Max/    Max/
                                  |Flow|   Occurrence   |Veloc|    Full    Full
  Link                 Type          LPS  days hr:min     m/sec    Flow   Depth
  -----------------------------------------------------------------------------
  1                    CONDUIT    557.66     0  02:48      2.83    0.19    0.30
  WS02003060WS02003069 CONDUIT    555.94     0  02:46      1.64    0.22    0.34
  WS02003066WSF200     CONDUIT    539.27     0  02:45      2.86    0.09    0.22
  WS02003067WS02003066 CONDUIT    539.21     0  02:45      1.21    0.17    0.42
  WS02003069WS02003072 CONDUIT    556.02     0  02:46      1.37    0.27    0.39
  WS02003072WS02003073 CONDUIT    555.94     0  02:47      1.44    1.20    0.37
  WS02004401WS02004402 CONDUIT    544.35     0  03:04      1.04    0.65    0.89
  WS02004402WS02004403 CONDUIT    543.52     0  03:04      1.05    0.78    0.91
  WS02004403WS02004404 CONDUIT    560.84     0  02:41      1.05    0.41    0.96
  WS02004404WS02004405 CONDUIT    608.42     0  02:45      1.19    5.96    0.98
  WS02004405WS02004406 CONDUIT    548.19     0  02:42      1.18    1.08    0.96
  WS02004406WS02004407 CONDUIT    541.44     0  02:42      1.04    0.24    0.63
  WS02004407WS02004409 CONDUIT    540.46     0  02:43      1.50    0.19    0.48
  WS02004409WS02004410 CONDUIT    539.93     0  02:43      0.98    0.70    0.68
  WS02004410WS02004411 CONDUIT    539.75     0  02:43      0.94    0.74    0.69
  WS02004411WS02004412 CONDUIT    539.48     0  02:44      0.93    0.77    0.70
  WS02004412WS02004413 CONDUIT    539.37     0  02:44      0.97    0.36    0.78
  WS02004413WS02003067 CONDUIT    539.10     0  02:44      1.11    0.23    0.59
  WS02006109WS02006110 CONDUIT    561.41     0  02:46      1.12    1.08    1.00
  WS02006110WS02006113 CONDUIT    568.59     0  02:46      1.37    0.52    0.79
  WS02006111WS02006112 CONDUIT    543.09     0  02:53      1.85    0.26    0.67
  WS02006112WS02006115 CONDUIT    553.37     0  02:15      0.81    0.33    0.88
  WS02006113WS02006111 CONDUIT    562.45     0  03:17      2.47    0.67    0.46
  WS02006115WS02006116 CONDUIT    540.06     0  02:45      1.11    0.69    0.78
  WS02006116WS02004401 CONDUIT    541.67     0  03:05      1.06    0.75    0.87
  WS02006228WS02006109 CONDUIT    559.72     0  02:46      1.11    2.45    1.00
  WS02006229WS02006228 CONDUIT    559.47     0  02:46      1.11    1.85    1.00
  WS02006230WS02006229 CONDUIT    559.10     0  02:46      1.45   12.44    1.00
  WS02006231WS02006230 CONDUIT    576.23     0  03:25      1.56    8.74    1.00
  WS02006232WS02006231 CONDUIT    573.43     0  02:19      1.50    1.20    1.00
  WS02006234WS02006232 CONDUIT    572.74     0  02:19      1.49    1.16    1.00
  WS02006235WS02006234 CONDUIT    568.23     0  02:19      1.48    6.00    1.00
  WS02006238WS02006235 CONDUIT    428.60     0  03:41      1.45    0.96    1.00
  WS02006239WS02006238 CONDUIT    428.35     0  03:41      1.11    1.37    1.00
  WS02006240WS02006239 CONDUIT    428.14     0  03:41      1.24    1.35    1.00
  WS02006242WS02006240 CONDUIT    425.81     0  03:41      1.13    1.69    1.00
  WS02006243WS02006242 CONDUIT    425.22     0  03:41      1.40    0.91    1.00
  WS02006245WS02006243 CONDUIT    425.09     0  03:40      1.45    1.26    1.00
  WS02006247WS02006245 CONDUIT    426.63     0  03:40      1.43    3.38    1.00
  WS02006248WS02006247 CONDUIT    426.73     0  03:40      1.44    0.93    1.00
  WS02006249WS02006248 CONDUIT    427.48     0  03:40      1.40    2.34    1.00
  WS02006251WS02006249 CONDUIT    471.88     0  01:35      1.99    1.36    1.00
  WS02006252WS02006251 CONDUIT    406.57     0  02:09     21.80    1.49    1.00
  WS02006256WS02006235 CONDUIT    288.91     0  00:00      4.23    3.06    1.00
  WSF200WS02003060     CONDUIT    539.56     0  02:45      2.06    0.12    0.28
  YS02001580YS02001583 CONDUIT     51.91     0  01:57      0.43    0.20    1.00
  YS02001583YS02001586 CONDUIT     85.21     0  01:57      0.36    0.13    1.00
  YS02001586YS02001590 CONDUIT    318.19     0  02:27      1.23    0.56    1.00
  YS02001590YS02001593 CONDUIT    318.05     0  02:47      1.12    2.00    1.00
  YS02001593YS02001596 CONDUIT    318.00     0  02:48      1.75    0.50    1.00
  YS02001596YS02001600 CONDUIT    318.10     0  02:27      1.30    0.62    1.00
  YS02001600YS02001601 CONDUIT    318.39     0  02:27      1.13    0.55    1.00
  YS02001601YS02001602 CONDUIT    499.27     0  01:57      1.77    1.80    1.00
  YS02001602YS02001605 CONDUIT    498.95     0  01:57      1.76   10.56    1.00
  YS02001605YS02001607 CONDUIT    498.52     0  01:57      1.76    2.73    1.00
  YS02001607YS02001610 CONDUIT    497.82     0  01:57      0.63    0.47    1.00
  YS02001610YS02001613 CONDUIT    617.77     0  02:29      0.79    0.71    1.00
  YS02001613YS02001616 CONDUIT    617.25     0  02:28      0.79    0.53    1.00
  YS02001616YS02001619 CONDUIT    617.47     0  02:29      0.79    1.07    1.00
  YS02001619YS02001622 CONDUIT   1053.98     0  02:28      1.34    1.55    1.00
  YS02001622YS02001625 CONDUIT   1053.70     0  02:29      1.34    0.56    1.00
  YS02001625YS02001629 CONDUIT    928.57     0  02:04      1.18    0.44    1.00
  YS02001629YS02163301 CONDUIT    968.21     0  02:25      1.23    1.19    1.00
  YS02001633YS02163601 CONDUIT   1320.29     0  02:05      1.68    1.39    1.00
  YS02001641YS02001644 CONDUIT   1320.86     0  02:05      1.68    4.27    1.00
  YS02001644YS02001647 CONDUIT   1670.53     0  02:05      2.15    0.98    1.00
  YS02001647YS02001649 CONDUIT   1669.65     0  02:06      2.27    0.88    1.00
  YS02001649YS02001757 CONDUIT   1896.98     0  02:08      2.46    1.15    1.00
  YS02001652YS02001649 CONDUIT   1542.56     0  02:25      1.96    0.76    1.00
  YS02001655YS02001652 CONDUIT   1541.59     0  02:25      1.96    0.75    1.00
  YS02001658YS02001655 CONDUIT   1541.22     0  02:25      1.96    0.65    1.00
  YS02001661YS02001658 CONDUIT   1540.75     0  02:25      2.18    0.60    1.00
  YS02001664YS02001661 CONDUIT   1540.23     0  02:25      2.11    0.48    1.00
  YS02001745YS02001748 CONDUIT    949.75     0  02:25      2.01    0.37    1.00
  YS02001748YS02001751 CONDUIT    950.02     0  02:25      1.58    0.48    1.00
  YS02001751YS02001754 CONDUIT    950.22     0  02:25      1.35    0.46    1.00
  YS02001754YS02001757 CONDUIT    951.92     0  02:25      1.21    0.38    1.00
  YS02001757CaochengTiaoxuchi CONDUIT   3073.56     0  02:15      3.91    1.33    1.00
  YS02001759YS02001757 CONDUIT   1356.56     0  02:23      1.73    0.96    1.00
  YS02001762YS02001759 CONDUIT    716.67     0  02:14      0.91    0.83    1.00
  YS02001765YS02001762 CONDUIT    715.74     0  02:14      0.91    0.67    1.00
  YS02001767YS02001765 CONDUIT    715.46     0  02:14      0.91    0.90    1.00
  YS02001770YS02001767 CONDUIT    715.11     0  02:14      0.91    2.83    1.00
  YS02001774YS02001770 CONDUIT    852.08     0  02:28      1.08    0.54    1.00
  YS02001779YS02001774 CONDUIT    851.75     0  02:27      1.08    0.43    1.00
  YS02001783YS02001784 CONDUIT   1184.38     0  02:25      2.36    1.63    1.00
  YS02001784YS02001785 CONDUIT   1185.50     0  02:25      2.36    2.76    1.00
  YS02001786YS02001788 CONDUIT   1186.83     0  02:24      2.52    2.29    0.89
  YS02001788YS02001790 CONDUIT   1192.02     0  02:24      2.74    0.88    0.84
  YS02001790YS02001791 CONDUIT   1291.93     0  02:19      3.44    1.41    0.70
  YS02001791YS02001793 CONDUIT   1251.38     0  02:20      6.78    0.54    0.45
  YS02001793JiankangQianchi CONDUIT   1291.79     0  02:20      2.57    0.10    0.65
  YS02001882YS02001884 CONDUIT     43.60     0  02:29      0.17    0.05    1.00
  YS02001884YS02001887 CONDUIT     59.48     0  02:29      0.13    0.08    1.00
  YS02001887YS02001890 CONDUIT   1394.40     0  02:25      1.78    2.39    1.00
  YS02001890YS02001895 CONDUIT    521.12     0  02:29      0.66    0.24    1.00
  YS02001895YS02001898 CONDUIT    519.30     0  02:29      0.66    0.90    1.00
  YS02001898YS02001901 CONDUIT    518.03     0  02:30      0.66    0.33    1.00
  YS02001901YS02001904 CONDUIT    517.79     0  02:27      0.66    0.80    1.00
  YS02001904YS02001907 CONDUIT    520.11     0  02:29      0.66    0.18    1.00
  YS02001907YS02006553 CONDUIT    805.50     0  02:44      0.89    0.95    1.00
  YS02001910YS02001907 CONDUIT   1992.97     0  02:24      2.54    1.12    1.00
  YS02001915YS02001910 CONDUIT   1993.21     0  02:27      2.54    0.99    1.00
  YS02001918YS02001915 CONDUIT    845.41     0  02:25      1.08    0.47    1.00
  YS02001920YS02001918 CONDUIT    844.32     0  02:25      1.08    0.82    1.00
  YS02001923YS02001920 CONDUIT    840.56     0  02:25      1.07    0.38    1.00
  YS02001926YS02001923 CONDUIT    838.36     0  02:25      1.07    1.20    1.00
  YS02001929YS02001926 CONDUIT    837.45     0  02:25      1.07    0.40    1.00
  YS02006553YS02006556 CONDUIT    805.47     0  02:44      1.03    0.69    1.00
  YS02006556YS02006558 CONDUIT    807.66     0  02:44      1.03    0.64    1.00
  YS02006558YS02006561 CONDUIT   1184.45     0  02:25      4.19    2.62    1.00
  YS02006561YS02001783 CONDUIT   1184.48     0  02:24      2.36    0.61    1.00
  YS02163301YS02001633 CONDUIT    967.81     0  02:25      1.23    0.91    1.00
  YS02163601YS02164001 CONDUIT   1320.79     0  02:05      1.68    1.17    1.00
  YS02164001YS02001641 CONDUIT   1321.63     0  02:05      1.68    1.80    1.00
  CC-R1                PUMP       683.00     0  00:00              1.00
  CC-R2                PUMP       683.00     0  00:00              1.00
  CC-S1                PUMP       200.00     0  00:00              1.00
  CC-S2                PUMP       200.00     0  00:00              1.00
  JK-R1                PUMP      1000.00     0  00:00              1.00
  JK-R2                PUMP      1000.00     0  00:00              1.00
  JK-S                 PUMP       300.00     0  00:00              1.00
  
  
  ***************************
  Flow Classification Summary
  ***************************
  
  -------------------------------------------------------------------------------------
                      Adjusted    ---------- Fraction of Time in Flow Class ---------- 
                       /Actual         Up    Down  Sub   Sup   Up    Down  Norm  Inlet 
  Conduit               Length    Dry  Dry   Dry   Crit  Crit  Crit  Crit  Ltd   Ctrl  
  -------------------------------------------------------------------------------------
  1                       1.00   0.00  0.00  0.00  0.00  1.00  0.00  0.00  0.38  0.00
  WS02003060WS02003069    1.00   0.00  0.00  0.00  0.97  0.03  0.00  0.00  0.68  0.00
  WS02003066WSF200        1.00   0.06  0.00  0.00  0.00  0.94  0.00  0.00  0.80  0.00
  WS02003067WS02003066    1.00   0.05  0.00  0.00  0.94  0.00  0.00  0.00  0.00  0.00
  WS02003069WS02003072    1.00   0.00  0.00  0.00  0.99  0.01  0.00  0.00  0.70  0.00
  WS02003072WS02003073    1.00   0.00  0.00  0.00  0.00  0.00  0.00  1.00  0.00  0.00
  WS02004401WS02004402    1.00   0.02  0.00  0.00  0.98  0.00  0.00  0.00  0.00  0.00
  WS02004402WS02004403    1.00   0.02  0.00  0.00  0.97  0.00  0.00  0.00  0.00  0.00
  WS02004403WS02004404    1.00   0.00  0.03  0.00  0.97  0.00  0.00  0.00  0.00  0.00
  WS02004404WS02004405    1.00   0.00  0.00  0.00  1.00  0.00  0.00  0.00  0.01  0.00
  WS02004405WS02004406    1.00   0.00  0.00  0.00  1.00  0.00  0.00  0.00  0.00  0.00
  WS02004406WS02004407    1.00   0.00  0.04  0.00  0.96  0.00  0.00  0.00  0.00  0.00
  WS02004407WS02004409    1.00   0.04  0.00  0.00  0.95  0.01  0.00  0.00  0.96  0.00
  WS02004409WS02004410    1.00   0.04  0.00  0.00  0.96  0.00  0.00  0.00  0.00  0.00
  WS02004410WS02004411    1.00   0.04  0.00  0.00  0.96  0.00  0.00  0.00  0.00  0.00
  WS02004411WS02004412    1.00   0.04  0.00  0.00  0.96  0.00  0.00  0.00  0.00  0.00
  WS02004412WS02004413    1.00   0.04  0.00  0.00  0.95  0.00  0.00  0.00  0.00  0.00
  WS02004413WS02003067    1.00   0.04  0.01  0.00  0.00  0.00  0.95  0.00  0.00  0.00
  WS02006109WS02006110    1.00   0.00  0.01  0.00  0.98  0.00  0.01  0.00  0.00  0.00
  WS02006110WS02006113    1.00   0.01  0.01  0.00  0.98  0.00  0.00  0.00  0.00  0.00
  WS02006111WS02006112    1.00   0.02  0.00  0.00  0.98  0.00  0.00  0.00  0.98  0.00
  WS02006112WS02006115    1.00   0.02  0.00  0.00  0.97  0.00  0.00  0.00  0.00  0.00
  WS02006113WS02006111    1.00   0.02  0.00  0.00  0.00  0.98  0.00  0.00  0.13  0.00
  WS02006115WS02006116    1.00   0.02  0.00  0.00  0.97  0.00  0.00  0.01  0.00  0.00
  WS02006116WS02004401    1.00   0.02  0.00  0.00  0.98  0.00  0.00  0.00  0.00  0.00
  WS02006228WS02006109    1.00   0.00  0.00  0.00  1.00  0.00  0.00  0.00  0.00  0.00
  WS02006229WS02006228    1.00   0.00  0.00  0.00  0.99  0.00  0.00  0.01  0.00  0.00
  WS02006230WS02006229    1.00   0.00  0.00  0.00  0.99  0.00  0.00  0.01  0.04  0.00
  WS02006231WS02006230    1.00   0.00  0.00  0.00  0.30  0.00  0.70  0.00  0.00  0.00
  WS02006232WS02006231    1.00   0.00  0.00  0.00  0.99  0.00  0.01  0.00  0.00  0.00
  WS02006234WS02006232    1.00   0.00  0.00  0.00  1.00  0.00  0.00  0.00  0.03  0.00
  WS02006235WS02006234    1.00   0.00  0.00  0.00  0.90  0.00  0.10  0.00  0.00  0.00
  WS02006238WS02006235    1.00   0.00  0.00  0.00  1.00  0.00  0.00  0.00  0.00  0.00
  WS02006239WS02006238    1.00   0.00  0.00  0.00  1.00  0.00  0.00  0.00  0.10  0.00
  WS02006240WS02006239    1.00   0.00  0.00  0.00  0.69  0.00  0.00  0.31  0.04  0.00
  WS02006242WS02006240    1.00   0.00  0.00  0.00  0.99  0.00  0.01  0.00  0.00  0.00
  WS02006243WS02006242    1.00   0.00  0.00  0.00  0.99  0.00  0.00  0.01  0.58  0.00
  WS02006245WS02006243    1.00   0.00  0.00  0.00  0.81  0.00  0.00  0.18  0.01  0.00
  WS02006247WS02006245    1.00   0.00  0.00  0.00  0.96  0.00  0.00  0.04  0.00  0.00
  WS02006248WS02006247    1.00   0.00  0.00  0.00  0.98  0.00  0.00  0.01  0.53  0.00
  WS02006249WS02006248    1.00   0.00  0.00  0.00  0.46  0.00  0.54  0.00  0.00  0.00
  WS02006251WS02006249    1.00   0.00  0.00  0.00  0.99  0.01  0.00  0.00  0.55  0.00
  WS02006252WS02006251    1.00   0.00  0.48  0.00  0.14  0.00  0.38  0.00  0.01  0.00
  WS02006256WS02006235    1.00   0.00  0.00  0.00  0.98  0.02  0.00  0.00  0.00  0.00
  WSF200WS02003060        1.00   0.00  0.06  0.00  0.44  0.50  0.00  0.00  0.60  0.00
  YS02001580YS02001583    1.00   0.24  0.52  0.00  0.24  0.00  0.00  0.00  0.61  0.00
  YS02001583YS02001586    1.00   0.39  0.31  0.00  0.30  0.00  0.00  0.00  0.61  0.00
  YS02001586YS02001590    1.00   0.13  0.00  0.00  0.48  0.04  0.00  0.35  0.36  0.00
  YS02001590YS02001593    1.00   0.13  0.01  0.00  0.17  0.00  0.70  0.00  0.00  0.00
  YS02001593YS02001596    1.00   0.13  0.00  0.00  0.19  0.01  0.00  0.67  0.02  0.00
  YS02001596YS02001600    1.00   0.13  0.00  0.00  0.25  0.01  0.00  0.61  0.04  0.00
  YS02001600YS02001601    1.00   0.13  0.01  0.00  0.87  0.00  0.00  0.00  0.56  0.00
  YS02001601YS02001602    1.00   0.13  0.01  0.00  0.87  0.00  0.00  0.00  0.00  0.00
  YS02001602YS02001605    1.00   0.13  0.00  0.00  0.87  0.00  0.00  0.00  0.00  0.00
  YS02001605YS02001607    1.00   0.13  0.00  0.00  0.87  0.00  0.00  0.00  0.00  0.00
  YS02001607YS02001610    1.00   0.13  0.00  0.00  0.86  0.00  0.00  0.00  0.01  0.00
  YS02001610YS02001613    1.00   0.13  0.00  0.00  0.87  0.00  0.00  0.00  0.00  0.00
  YS02001613YS02001616    1.00   0.13  0.00  0.00  0.87  0.00  0.00  0.00  0.00  0.00
  YS02001616YS02001619    1.00   0.13  0.00  0.00  0.87  0.00  0.00  0.00  0.00  0.00
  YS02001619YS02001622    1.00   0.13  0.00  0.00  0.87  0.00  0.00  0.00  0.26  0.00
  YS02001622YS02001625    1.00   0.13  0.00  0.00  0.87  0.00  0.00  0.00  0.03  0.00
  YS02001625YS02001629    1.00   0.13  0.04  0.00  0.23  0.00  0.61  0.00  0.00  0.00
  YS02001629YS02163301    1.00   0.14  0.01  0.00  0.85  0.00  0.00  0.00  0.00  0.00
  YS02001633YS02163601    1.00   0.00  0.01  0.00  0.99  0.00  0.00  0.00  0.14  0.00
  YS02001641YS02001644    1.00   0.00  0.01  0.00  0.99  0.00  0.00  0.00  0.00  0.00
  YS02001644YS02001647    1.00   0.00  0.16  0.00  0.84  0.00  0.00  0.00  0.00  0.00
  YS02001647YS02001649    1.00   0.00  0.16  0.00  0.57  0.27  0.00  0.00  0.55  0.00
  YS02001649YS02001757    1.00   0.00  0.00  0.00  0.71  0.29  0.00  0.00  0.38  0.00
  YS02001652YS02001649    1.00   0.00  0.00  0.00  0.97  0.03  0.00  0.00  0.69  0.00
  YS02001655YS02001652    1.00   0.00  0.00  0.00  0.25  0.01  0.00  0.74  0.06  0.00
  YS02001658YS02001655    1.00   0.00  0.14  0.00  0.70  0.16  0.00  0.00  0.64  0.00
  YS02001661YS02001658    1.00   0.14  0.00  0.00  0.54  0.33  0.00  0.00  0.64  0.00
  YS02001664YS02001661    1.00   0.13  0.00  0.00  0.78  0.10  0.00  0.00  0.82  0.00
  YS02001745YS02001748    1.00   0.00  0.00  0.00  0.15  0.00  0.00  0.85  0.03  0.00
  YS02001748YS02001751    1.00   0.00  0.00  0.00  0.86  0.14  0.00  0.00  0.71  0.00
  YS02001751YS02001754    1.00   0.00  0.00  0.00  0.22  0.01  0.00  0.77  0.04  0.00
  YS02001754YS02001757    1.00   0.00  0.00  0.00  1.00  0.00  0.00  0.00  0.75  0.00
  YS02001757CaochengTiaoxuchi    1.00   0.00  0.00  0.00  0.93  0.07  0.00  0.00  0.69  0.00
  YS02001759YS02001757    1.00   0.00  0.00  0.00  0.98  0.02  0.00  0.00  0.57  0.00
  YS02001762YS02001759    1.00   0.00  0.00  0.00  1.00  0.00  0.00  0.00  0.03  0.00
  YS02001765YS02001762    1.00   0.00  0.00  0.00  1.00  0.00  0.00  0.00  0.66  0.00
  YS02001767YS02001765    1.00   0.00  0.00  0.00  1.00  0.00  0.00  0.00  0.00  0.00
  YS02001770YS02001767    1.00   0.00  0.00  0.00  1.00  0.00  0.00  0.00  0.00  0.00
  YS02001774YS02001770    1.00   0.00  0.13  0.00  0.72  0.00  0.15  0.00  0.02  0.00
  YS02001779YS02001774    1.00   0.00  0.00  0.00  1.00  0.00  0.00  0.00  0.71  0.00
  YS02001783YS02001784    1.00   0.00  0.16  0.00  0.84  0.00  0.00  0.00  0.54  0.00
  YS02001784YS02001785    1.00   0.00  0.00  0.00  1.00  0.00  0.00  0.00  0.15  0.00
  YS02001786YS02001788    1.00   0.00  0.00  0.00  0.79  0.21  0.00  0.00  0.00  0.00
  YS02001788YS02001790    1.00   0.00  0.00  0.00  0.21  0.79  0.00  0.00  0.77  0.00
  YS02001790YS02001791    1.00   0.00  0.00  0.00  0.01  0.99  0.00  0.00  0.15  0.00
  YS02001791YS02001793    1.00   0.00  0.00  0.00  0.00  1.00  0.00  0.00  0.01  0.00
  YS02001793JiankangQianchi    1.00   0.00  0.00  0.00  0.94  0.06  0.00  0.00  0.95  0.00
  YS02001882YS02001884    1.00   0.14  0.01  0.00  0.85  0.00  0.00  0.00  0.00  0.00
  YS02001884YS02001887    1.00   0.06  0.05  0.00  0.89  0.00  0.00  0.00  0.00  0.00
  YS02001887YS02001890    1.00   0.00  0.00  0.00  0.97  0.00  0.03  0.00  0.00  0.00
  YS02001890YS02001895    1.00   0.00  0.15  0.00  0.85  0.00  0.00  0.00  0.00  0.00
  YS02001895YS02001898    1.00   0.15  0.00  0.00  0.83  0.00  0.01  0.00  0.00  0.00
  YS02001898YS02001901    1.00   0.15  0.00  0.00  0.85  0.00  0.00  0.00  0.01  0.00
  YS02001901YS02001904    1.00   0.15  0.00  0.00  0.85  0.00  0.00  0.00  0.00  0.00
  YS02001904YS02001907    1.00   0.00  0.15  0.00  0.85  0.00  0.00  0.00  0.00  0.00
  YS02001907YS02006553    1.00   0.00  0.02  0.00  0.98  0.00  0.00  0.00  0.00  0.00
  YS02001910YS02001907    1.00   0.00  0.00  0.00  0.97  0.00  0.00  0.03  0.11  0.00
  YS02001915YS02001910    1.00   0.00  0.00  0.00  0.97  0.03  0.00  0.00  0.13  0.00
  YS02001918YS02001915    1.00   0.00  0.01  0.00  0.98  0.02  0.00  0.00  0.69  0.00
  YS02001920YS02001918    1.00   0.00  0.01  0.00  0.99  0.00  0.00  0.00  0.00  0.00
  YS02001923YS02001920    1.00   0.00  0.00  0.00  1.00  0.00  0.00  0.00  0.88  0.00
  YS02001926YS02001923    1.00   0.00  0.07  0.00  0.10  0.00  0.83  0.00  0.00  0.00
  YS02001929YS02001926    1.00   0.00  0.13  0.00  0.87  0.00  0.00  0.00  0.79  0.00
  YS02006553YS02006556    1.00   0.01  0.00  0.00  0.99  0.00  0.00  0.00  0.03  0.00
  YS02006556YS02006558    1.00   0.00  0.00  0.00  1.00  0.00  0.00  0.00  0.00  0.00
  YS02006558YS02006561    1.00   0.16  0.00  0.00  0.09  0.75  0.00  0.00  0.16  0.00
  YS02006561YS02001783    1.00   0.16  0.00  0.00  0.14  0.70  0.00  0.00  0.65  0.00
  YS02163301YS02001633    1.00   0.00  0.14  0.00  0.86  0.00  0.00  0.00  0.00  0.00
  YS02163601YS02164001    1.00   0.00  0.08  0.00  0.92  0.00  0.00  0.00  0.00  0.00
  YS02164001YS02001641    1.00   0.01  0.07  0.00  0.92  0.00  0.00  0.00  0.05  0.00
  
  
  *************************
  Conduit Surcharge Summary
  *************************
  
  ----------------------------------------------------------------------------
                                                           Hours        Hours 
                         --------- Hours Full --------   Above Full   Capacity
  Conduit                Both Ends  Upstream  Dnstream   Normal Flow   Limited
  ----------------------------------------------------------------------------
  WS02003072WS02003073        0.01      0.01      0.01      1.34         0.01
  WS02004403WS02004404        0.01      0.01      0.02      0.01         0.01
  WS02004404WS02004405        0.01      0.02      0.01      3.12         0.01
  WS02004405WS02004406        0.01      0.01      0.01      0.80         0.01
  WS02006109WS02006110        0.91      0.91      2.24      1.02         0.01
  WS02006110WS02006113        0.01      0.01      2.17      0.01         0.01
  WS02006111WS02006112        0.01      0.01      2.54      0.01         0.01
  WS02006112WS02006115        0.01      0.01      1.00      0.01         0.01
  WS02006228WS02006109        2.10      2.24      2.10      2.64         2.10
  WS02006229WS02006228        2.08      2.12      2.08      2.48         2.07
  WS02006230WS02006229        2.36      2.45      2.36      3.50         2.36
  WS02006231WS02006230        0.92      0.92      1.08      3.25         0.01
  WS02006232WS02006231        1.04      1.04      2.25      1.12         0.01
  WS02006234WS02006232        2.04      2.04      2.25      1.10         1.09
  WS02006235WS02006234        1.37      1.38      2.10      3.17         0.02
  WS02006238WS02006235        2.13      2.13      2.25      0.01         0.01
  WS02006239WS02006238        2.14      2.19      2.17      2.22         1.87
  WS02006240WS02006239        2.04      2.07      2.05      2.21         1.71
  WS02006242WS02006240        2.06      2.06      2.21      2.39         0.01
  WS02006243WS02006242        2.08      2.08      2.16      0.01         0.04
  WS02006245WS02006243        2.06      2.07      2.07      1.26         1.26
  WS02006247WS02006245        2.06      2.09      2.06      2.87         2.05
  WS02006248WS02006247        2.05      2.05      2.08      0.01         0.04
  WS02006249WS02006248        2.04      2.04      2.05      2.82         0.01
  WS02006251WS02006249        2.05      2.06      2.05      2.34         1.97
  WS02006252WS02006251        2.43      2.43      2.46      2.44         0.01
  WS02006256WS02006235        3.18      3.21      7.18      1.57         0.01
  YS02001580YS02001583        1.00      1.01      1.06      0.01         0.01
  YS02001583YS02001586        1.01      1.01      1.13      0.01         0.01
  YS02001586YS02001590        1.14      1.14      1.21      0.01         0.01
  YS02001590YS02001593        1.21      1.21      1.24      1.20         0.01
  YS02001593YS02001596        1.22      1.22      1.34      0.01         0.01
  YS02001596YS02001600        1.41      1.41      1.52      0.01         0.01
  YS02001600YS02001601        1.59      1.59      1.87      0.01         0.01
  YS02001601YS02001602        1.77      1.77      1.91      1.52         0.01
  YS02001602YS02001605        1.72      1.72      1.77      2.65         0.01
  YS02001605YS02001607        1.67      1.72      1.68      1.80         1.65
  YS02001607YS02001610        1.20      1.20      1.23      0.01         0.01
  YS02001610YS02001613        1.19      1.19      1.23      0.01         0.01
  YS02001613YS02001616        1.15      1.15      1.19      0.01         0.01
  YS02001616YS02001619        1.14      1.14      1.15      0.19         0.14
  YS02001619YS02001622        1.14      1.14      1.14      1.19         1.08
  YS02001622YS02001625        1.14      1.14      1.33      0.01         0.01
  YS02001625YS02001629        1.06      1.06      1.33      0.01         0.01
  YS02001629YS02163301        1.33      1.33      1.34      0.24         0.20
  YS02001633YS02163601        1.38      1.38      1.42      0.33         0.36
  YS02001641YS02001644        1.27      1.31      1.27      1.94         1.25
  YS02001644YS02001647        1.00      1.00      1.27      0.01         0.01
  YS02001647YS02001649        1.00      1.00      1.11      0.01         0.01
  YS02001649YS02001757        1.11      1.11      1.18      0.22         0.10
  YS02001652YS02001649        0.96      0.96      1.11      0.01         0.01
  YS02001655YS02001652        0.80      0.80      0.95      0.01         0.01
  YS02001658YS02001655        0.48      0.48      0.80      0.01         0.01
  YS02001661YS02001658        0.20      0.20      0.48      0.01         0.01
  YS02001664YS02001661        0.04      0.04      0.25      0.01         0.01
  YS02001745YS02001748        0.04      0.04      0.40      0.01         0.01
  YS02001748YS02001751        0.45      0.45      0.65      0.01         0.01
  YS02001751YS02001754        0.65      0.65      0.89      0.01         0.01
  YS02001754YS02001757        0.92      0.92      1.18      0.01         0.01
  YS02001757CaochengTiaoxuchi        1.17      1.18      1.70      0.63         0.54
  YS02001759YS02001757        1.09      1.09      1.18      0.01         0.01
  YS02001762YS02001759        1.06      1.06      1.09      0.01         0.01
  YS02001765YS02001762        1.03      1.03      1.06      0.01         0.01
  YS02001767YS02001765        1.00      1.00      1.03      0.01         0.02
  YS02001770YS02001767        0.99      0.99      1.00      0.78         0.57
  YS02001774YS02001770        0.97      0.97      1.05      0.01         0.01
  YS02001779YS02001774        0.88      0.88      1.05      0.01         0.01
  YS02001783YS02001784        0.81      0.84      0.81      1.07         0.81
  YS02001784YS02001785        0.67      0.81      0.67      1.39         0.67
  YS02001786YS02001788        0.01      0.67      0.01      1.24         0.01
  YS02001790YS02001791        0.01      0.01      0.01      0.79         0.01
  YS02001793JiankangQianchi        0.01      0.01      6.44      0.01         0.01
  YS02001882YS02001884        0.77      0.77      0.78      0.01         0.01
  YS02001884YS02001887        0.81      0.81      0.82      0.01         0.01
  YS02001887YS02001890        0.85      0.85      0.86      0.26         0.01
  YS02001890YS02001895        0.75      0.75      0.89      0.01         0.01
  YS02001895YS02001898        0.74      0.74      0.75      0.01         0.01
  YS02001898YS02001901        0.76      0.76      0.81      0.01         0.01
  YS02001901YS02001904        0.80      0.80      0.81      0.01         0.01
  YS02001904YS02001907        0.80      0.80      1.22      0.01         0.01
  YS02001907YS02006553        1.39      1.39      1.47      0.01         0.01
  YS02001910YS02001907        0.89      0.89      1.18      0.14         0.14
  YS02001915YS02001910        0.76      0.76      0.89      0.01         0.01
  YS02001918YS02001915        0.66      0.66      0.76      0.01         0.01
  YS02001920YS02001918        0.66      0.66      0.67      0.01         0.01
  YS02001923YS02001920        0.61      0.61      0.67      0.01         0.01
  YS02001926YS02001923        0.27      0.27      0.32      0.09         0.01
  YS02001929YS02001926        0.16      0.16      0.32      0.01         0.01
  YS02006553YS02006556        1.02      1.02      1.22      0.01         0.01
  YS02006556YS02006558        1.12      1.12      1.25      0.01         0.01
  YS02006558YS02006561        0.70      0.99      0.70      1.34         0.70
  YS02006561YS02001783        0.61      0.61      0.84      0.01         0.01
  YS02163301YS02001633        1.34      1.34      1.40      0.01         0.01
  YS02163601YS02164001        1.31      1.31      1.42      0.18         0.01
  YS02164001YS02001641        1.30      1.31      1.31      0.87         0.76
  
  
  ***************
  Pumping Summary
  ***************
  
  ---------------------------------------------------------------------------------------------------------
                                                  Min       Avg       Max     Total     Power    % Time Off
                        Percent   Number of      Flow      Flow      Flow    Volume     Usage    Pump Curve
  Pump                 Utilized   Start-Ups       LPS       LPS       LPS  10^6 ltr     Kw-hr    Low   High
  ---------------------------------------------------------------------------------------------------------
  CC-R1                   31.45          25      0.00    683.00    683.00     6.186    114.24    0.0   35.3
  CC-R2                   23.65          21      0.00    683.00    683.00     4.653     87.56    0.0   25.1
  CC-S1                   34.89          24      0.00    200.00    200.00     2.009     11.41    0.0    0.0
  CC-S2                   32.43          25      0.00    200.00    200.00     1.868     10.54    0.0    0.0
  JK-R1                    9.85          25      0.00   1000.00   1000.00     2.838     27.44    0.0    0.0
  JK-R2                    3.93          16      0.00   1000.00   1000.00     1.132     10.02    0.0    0.0
  JK-S                    19.03          37      0.00    300.00    300.00     1.644     28.10    0.0    0.0
  

  Analysis begun on:  Mon Dec 30 10:13:48 2024
  Analysis ended on:  Mon Dec 30 10:13:50 2024
  Total elapsed time: 00:00:02