
  EPA STORM WATER MANAGEMENT MODEL - VERSION 5.2 (Build 5.2.4)
  PYSWMM TOOLKIT API - VERSION v1.0 (2023-11-27)
  ------------------------------------------------------------

  WARNING 04: minimum elevation drop used for Conduit WS02004404WS02004405
  WARNING 03: negative offset ignored for Link YS02001904YS02001907
  
  ****************
  Analysis Options
  ****************
  Flow Units ............... LPS
  Process Models:
    Rainfall/Runoff ........ YES
    RDII ................... NO
    Snowmelt ............... NO
    Groundwater ............ NO
    Flow Routing ........... YES
    Ponding Allowed ........ NO
    Water Quality .......... NO
  Infiltration Method ...... HORTON
  Flow Routing Method ...... DYNWAVE
  Surcharge Method ......... EXTRAN
  Starting Date ............ 08/28/2015 08:00:00
  Ending Date .............. 08/28/2015 16:00:00
  Antecedent Dry Days ...... 8.0
  Report Time Step ......... 00:01:00
  Wet Time Step ............ 00:01:00
  Dry Time Step ............ 00:01:00
  Routing Time Step ........ 30.00 sec
  Variable Time Step ....... YES
  Maximum Trials ........... 8
  Number of Threads ........ 4
  Head Tolerance ........... 0.001500 m
  
  
  **************************        Volume         Depth
  Runoff Quantity Continuity     hectare-m            mm
  **************************     ---------       -------
  Total Precipitation ......         1.542        46.487
  Evaporation Loss .........         0.000         0.000
  Infiltration Loss ........         0.094         2.826
  Surface Runoff ...........         1.416        42.681
  Final Storage ............         0.033         0.992
  Continuity Error (%) .....        -0.025
  
  
  **************************        Volume        Volume
  Flow Routing Continuity        hectare-m      10^6 ltr
  **************************     ---------     ---------
  Dry Weather Inflow .......         0.025         0.251
  Wet Weather Inflow .......         1.415        14.154
  Groundwater Inflow .......         0.000         0.000
  RDII Inflow ..............         0.000         0.000
  External Inflow ..........         0.083         0.834
  External Outflow .........         1.365        13.649
  Flooding Loss ............         0.232         2.320
  Evaporation Loss .........         0.000         0.000
  Exfiltration Loss ........         0.000         0.000
  Initial Stored Volume ....         0.243         2.431
  Final Stored Volume ......         0.181         1.815
  Continuity Error (%) .....        -0.651
  
  
  *************************
  Highest Continuity Errors
  *************************
  Node YS02001583 (-14.72%)
  Node YS02001884 (4.93%)
  Node WS02006256 (-3.34%)
  Node YS02001774 (1.47%)
  
  
  ***************************
  Time-Step Critical Elements
  ***************************
  Link WS02006252WS02006251 (30.77%)
  Link WS02006238WS02006235 (24.24%)
  Link WS02004404WS02004405 (20.01%)
  Link WS02003066WSF200 (6.42%)
  Link YS02001791YS02001793 (4.78%)
  
  
  ********************************
  Highest Flow Instability Indexes
  ********************************
  Link WS02006113WS02006111 (36)
  Link WS02006256WS02006235 (22)
  Link WS02004404WS02004405 (18)
  Link WS02004403WS02004404 (16)
  Link WS02006238WS02006235 (15)
  
  
  *********************************
  Most Frequent Nonconverging Nodes
  *********************************
  Node CC-1 (14.54%)
  Node CC-2 (14.54%)
  Node JK-1 (14.54%)
  Node JK-2 (14.54%)
  Node WSC (14.54%)
  
  
  *************************
  Routing Time Step Summary
  *************************
  Minimum Time Step           :     0.01 sec
  Average Time Step           :     2.56 sec
  Maximum Time Step           :     6.43 sec
  % of Time in Steady State   :     0.00
  Average Iterations per Step :     3.41
  % of Steps Not Converging   :    14.54
  Time Step Frequencies       :
     30.000 - 13.228 sec      :     0.00 %
     13.228 -  5.833 sec      :    13.08 %
      5.833 -  2.572 sec      :    25.08 %
      2.572 -  1.134 sec      :    26.71 %
      1.134 -  0.500 sec      :    35.14 %
  
  
  ***************************
  Subcatchment Runoff Summary
  ***************************
  
  ------------------------------------------------------------------------------------------------------------------------------
                            Total      Total      Total      Total     Imperv       Perv      Total       Total     Peak  Runoff
                           Precip      Runon       Evap      Infil     Runoff     Runoff     Runoff      Runoff   Runoff   Coeff
  Subcatchment                 mm         mm         mm         mm         mm         mm         mm    10^6 ltr      LPS
  ------------------------------------------------------------------------------------------------------------------------------
  sub60                     46.49       0.00       0.00       1.74      39.70       3.84      43.54        0.57   345.68   0.937
  sub61                     46.49       0.00       0.00       2.52      37.45       5.39      42.84        0.79   473.39   0.922
  sub62                     46.49       0.00       0.00       1.16      41.48       2.56      44.04        1.21   665.19   0.947
  sub63                     46.49       0.00       0.00       4.59      32.03       8.89      40.93        0.93   508.15   0.880
  sub64                     46.49       0.00       0.00       2.33      38.31       4.65      42.96        1.03   523.84   0.924
  sub65                     46.49       0.00       0.00       2.01      39.19       4.03      43.22        1.19   581.41   0.930
  sub66                     46.49       0.00       0.00       5.57      31.93       7.91      39.84        1.86   723.02   0.857
  sub67                     46.49       0.00       0.00       1.13      41.52       2.59      44.12        0.82   537.37   0.949
  sub68                     46.49       0.00       0.00       2.08      38.79       4.43      43.22        1.19   679.85   0.930
  sub69                     46.49       0.00       0.00       1.81      39.40       5.17      44.57        1.65   790.77   0.959
  sub70                     46.49       0.00       0.00       5.89      30.52       9.92      40.44        1.17   413.34   0.870
  sub71                     46.49       0.00       0.00       1.19      41.44       2.53      43.98        1.15   570.64   0.946
  sub72                     46.49       0.00       0.00       1.05      41.83       2.20      44.04        0.61   269.44   0.947
  
  
  ******************
  Node Depth Summary
  ******************
  
  ---------------------------------------------------------------------------------
                                 Average  Maximum  Maximum  Time of Max    Reported
                                   Depth    Depth      HGL   Occurrence   Max Depth
  Node                 Type       Meters   Meters   Meters  days hr:min      Meters
  ---------------------------------------------------------------------------------
  WS02003060           JUNCTION     0.21     0.38     5.32     0  02:43        0.38
  WS02003066           JUNCTION     0.17     0.30     5.85     0  02:43        0.30
  WS02003067           JUNCTION     0.46     0.70     6.02     0  02:42        0.70
  WS02003069           JUNCTION     0.23     0.43     5.01     0  02:43        0.43
  WS02003072           JUNCTION     0.29     0.50     4.87     0  02:44        0.50
  WS02003073           JUNCTION     0.16     0.30     4.36     0  02:44        0.30
  WS02004401           JUNCTION     0.55     0.88     6.88     0  02:11        0.88
  WS02004402           JUNCTION     0.58     0.91     6.87     0  02:10        0.90
  WS02004403           JUNCTION     0.60     0.93     6.86     0  02:10        0.92
  WS02004404           JUNCTION     0.67     1.05     6.90     0  02:10        1.00
  WS02004405           JUNCTION     0.66     0.97     6.82     0  02:10        0.96
  WS02004406           JUNCTION     0.67     0.96     6.79     0  02:37        0.96
  WS02004407           JUNCTION     0.15     0.30     6.61     0  02:41        0.30
  WS02004409           JUNCTION     0.35     0.67     6.44     0  02:41        0.67
  WS02004410           JUNCTION     0.37     0.68     6.40     0  02:41        0.68
  WS02004411           JUNCTION     0.39     0.69     6.37     0  02:42        0.69
  WS02004412           JUNCTION     0.41     0.70     6.34     0  02:42        0.70
  WS02004413           JUNCTION     0.57     0.86     6.33     0  02:42        0.86
  WS02006109           JUNCTION     0.61     1.11     7.73     0  02:03        0.98
  WS02006110           JUNCTION     0.61     1.16     7.74     0  02:03        0.94
  WS02006111           JUNCTION     0.16     0.29     6.99     0  02:27        0.29
  WS02006112           JUNCTION     0.70     1.08     6.97     0  02:40        1.07
  WS02006113           JUNCTION     0.24     0.46     7.35     0  03:03        0.46
  WS02006115           JUNCTION     0.44     0.77     6.91     0  02:40        0.77
  WS02006116           JUNCTION     0.52     0.86     6.90     0  02:38        0.86
  WS02006228           JUNCTION     0.60     1.12     7.77     0  02:03        1.03
  WS02006229           JUNCTION     0.57     1.14     7.84     0  02:03        1.04
  WS02006230           JUNCTION     0.57     1.31     8.05     0  02:03        1.18
  WS02006231           JUNCTION     0.39     1.01     8.14     0  02:03        0.93
  WS02006232           JUNCTION     0.52     1.77     8.81     0  03:25        1.14
  WS02006234           JUNCTION     0.44     1.69     8.85     0  03:40        1.18
  WS02006235           JUNCTION     0.48     1.73     8.90     0  03:40        1.28
  WS02006238           JUNCTION     0.51     1.76     8.91     0  03:40        1.31
  WS02006239           JUNCTION     0.47     1.71     8.92     0  03:40        1.30
  WS02006240           JUNCTION     0.44     1.65     8.94     0  03:25        1.26
  WS02006242           JUNCTION     0.50     1.55     8.82     0  03:25        1.32
  WS02006243           JUNCTION     0.42     1.34     8.76     0  02:20        1.23
  WS02006245           JUNCTION     0.42     1.26     8.75     0  02:20        1.21
  WS02006247           JUNCTION     0.44     1.23     8.73     0  02:20        1.21
  WS02006248           JUNCTION     0.40     1.10     8.69     0  02:03        1.10
  WS02006249           JUNCTION     0.43     1.09     8.69     0  01:50        1.09
  WS02006251           JUNCTION     0.42     1.35     9.02     0  02:50        1.19
  WS02006252           JUNCTION     0.31     1.50     9.74     0  00:00        0.72
  WS02006256           JUNCTION     0.97     2.35     9.28     0  00:00        2.35
  WSF200               JUNCTION     0.15     0.29     5.52     0  02:40        0.29
  YS02001580           JUNCTION     0.10     1.05     9.59     0  01:37        0.78
  YS02001583           JUNCTION     0.13     1.14     9.64     0  01:37        0.82
  YS02001586           JUNCTION     0.21     1.13     9.30     0  01:36        1.13
  YS02001590           JUNCTION     0.32     1.40     9.26     0  01:36        1.37
  YS02001593           JUNCTION     0.25     1.46     9.32     0  01:36        1.28
  YS02001596           JUNCTION     0.33     1.79     9.21     0  01:36        1.65
  YS02001600           JUNCTION     0.40     1.87     9.00     0  01:36        1.86
  YS02001601           JUNCTION     0.60     2.06     8.90     0  01:36        2.06
  YS02001602           JUNCTION     0.51     1.87     8.77     0  01:37        1.87
  YS02001605           JUNCTION     0.47     1.78     8.68     0  01:37        1.78
  YS02001607           JUNCTION     0.45     1.68     8.53     0  01:37        1.64
  YS02001610           JUNCTION     0.49     1.68     8.48     0  01:37        1.68
  YS02001613           JUNCTION     0.45     1.70     8.54     0  01:37        1.65
  YS02001616           JUNCTION     0.39     1.61     8.52     0  01:37        1.58
  YS02001619           JUNCTION     0.37     1.61     8.54     0  01:37        1.56
  YS02001622           JUNCTION     0.35     1.62     8.52     0  01:37        1.55
  YS02001625           JUNCTION     0.60     1.78     8.38     0  01:37        1.78
  YS02001629           JUNCTION     0.48     1.85     8.40     0  01:37        1.85
  YS02001633           JUNCTION     0.55     2.05     8.50     0  01:40        1.96
  YS02001641           JUNCTION     0.52     1.98     8.41     0  01:40        1.85
  YS02001644           JUNCTION     0.52     1.92     8.35     0  01:40        1.82
  YS02001647           JUNCTION     0.30     1.84     8.45     0  01:40        1.55
  YS02001649           JUNCTION     0.34     1.99     8.38     0  01:40        1.67
  YS02001652           JUNCTION     0.22     2.16     8.76     0  01:40        1.49
  YS02001655           JUNCTION     0.16     2.20     9.05     0  01:40        1.26
  YS02001658           JUNCTION     0.11     1.83     8.97     0  01:41        1.00
  YS02001661           JUNCTION     0.13     0.78     8.18     0  01:42        0.77
  YS02001664           JUNCTION     0.06     0.27     8.20     0  01:40        0.27
  YS02001745           JUNCTION     0.05     0.49     8.00     0  01:41        0.44
  YS02001748           JUNCTION     0.10     0.92     8.00     0  01:41        0.86
  YS02001751           JUNCTION     0.13     2.20     9.08     0  01:40        1.01
  YS02001754           JUNCTION     0.18     2.20     8.81     0  01:40        1.29
  YS02001757           JUNCTION     0.34     1.95     8.21     0  01:40        1.64
  YS02001759           JUNCTION     0.28     1.91     8.27     0  01:39        1.61
  YS02001762           JUNCTION     0.27     2.05     8.45     0  01:39        1.60
  YS02001765           JUNCTION     0.25     2.01     8.46     0  01:39        1.57
  YS02001767           JUNCTION     0.25     2.03     8.52     0  01:39        1.56
  YS02001770           JUNCTION     0.27     1.95     8.44     0  01:40        1.70
  YS02001774           JUNCTION     0.33     2.03     8.45     0  01:40        1.84
  YS02001779           JUNCTION     0.16     1.68     8.37     0  01:39        1.68
  YS02001783           JUNCTION     0.26     2.14     8.28     0  01:39        2.14
  YS02001784           JUNCTION     0.28     1.70     7.77     0  01:39        1.70
  YS02001786           JUNCTION     0.23     1.13     7.16     0  01:39        0.86
  YS02001788           JUNCTION     0.17     0.62     6.59     0  01:45        0.62
  YS02001790           JUNCTION     0.20     0.72     6.36     0  01:44        0.71
  YS02001791           JUNCTION     0.13     0.44     5.91     0  01:43        0.43
  YS02001793           JUNCTION     0.06     0.27     5.10     0  01:44        0.25
  YS02001882           JUNCTION     0.33     1.83     8.55     0  01:37        1.64
  YS02001884           JUNCTION     0.41     1.92     8.54     0  01:38        1.73
  YS02001887           JUNCTION     0.49     1.92     8.46     0  01:38        1.81
  YS02001890           JUNCTION     0.52     1.81     8.32     0  01:38        1.81
  YS02001895           JUNCTION     0.30     1.75     8.50     0  01:37        1.75
  YS02001898           JUNCTION     0.31     1.77     8.51     0  01:38        1.56
  YS02001901           JUNCTION     0.41     1.87     8.48     0  01:38        1.66
  YS02001904           JUNCTION     0.40     1.84     8.47     0  01:38        1.63
  YS02001907           JUNCTION     0.70     1.96     8.25     0  01:38        1.96
  YS02001910           JUNCTION     0.51     1.98     8.49     0  01:39        1.84
  YS02001915           JUNCTION     0.33     2.00     8.72     0  01:38        1.70
  YS02001918           JUNCTION     0.18     1.81     8.88     0  01:38        1.43
  YS02001920           JUNCTION     0.26     2.11     9.11     0  01:39        1.52
  YS02001923           JUNCTION     0.14     2.03     9.29     0  01:39        1.30
  YS02001926           JUNCTION     0.17     1.90     9.35     0  01:39        1.17
  YS02001929           JUNCTION     0.09     1.78     9.47     0  01:39        0.98
  YS02006553           JUNCTION     0.70     2.15     8.44     0  01:39        2.11
  YS02006556           JUNCTION     0.68     2.34     8.65     0  01:39        2.29
  YS02006558           JUNCTION     0.72     2.49     8.76     0  01:39        2.49
  YS02006561           JUNCTION     0.16     1.95     8.61     0  01:39        1.95
  YS02163301           JUNCTION     0.50     1.94     8.45     0  01:40        1.89
  YS02163601           JUNCTION     0.58     2.08     8.48     0  01:40        1.94
  YS02164001           JUNCTION     0.52     1.99     8.45     0  01:40        1.85
  CC-1                 OUTFALL      0.00     0.00     0.00     0  00:00        0.00
  CC-2                 OUTFALL      0.00     0.00     0.00     0  00:00        0.00
  JK-1                 OUTFALL      0.00     0.00     0.00     0  00:00        0.00
  JK-2                 OUTFALL      0.00     0.00     0.00     0  00:00        0.00
  WSC                  OUTFALL      0.16     0.30     0.97     0  02:44        0.30
  CC-storage           STORAGE      0.76     1.43     6.93     0  02:08        1.43
  JK-storage           STORAGE      1.46     4.21     5.01     0  02:06        4.14
  
  
  *******************
  Node Inflow Summary
  *******************
  
  -------------------------------------------------------------------------------------------------
                                  Maximum  Maximum                  Lateral       Total        Flow
                                  Lateral    Total  Time of Max      Inflow      Inflow     Balance
                                   Inflow   Inflow   Occurrence      Volume      Volume       Error
  Node                 Type           LPS      LPS  days hr:min    10^6 ltr    10^6 ltr     Percent
  -------------------------------------------------------------------------------------------------
  WS02003060           JUNCTION     16.53   554.53     0  02:43       0.476        4.37       0.052
  WS02003066           JUNCTION      0.00   537.91     0  02:42           0         3.9       0.038
  WS02003067           JUNCTION      0.00   537.92     0  02:42           0         3.9       0.107
  WS02003069           JUNCTION      0.32   554.69     0  02:43     0.00922        4.38       0.092
  WS02003072           JUNCTION      0.00   554.60     0  02:43           0        4.38       0.164
  WS02003073           JUNCTION      1.82   556.38     0  02:44      0.0524        4.42       0.131
  WS02004401           JUNCTION      0.00   537.64     0  02:38           0           4       0.259
  WS02004402           JUNCTION      0.00   540.16     0  02:40           0        3.99       0.262
  WS02004403           JUNCTION      0.00   548.85     0  02:11           0        3.98       0.254
  WS02004404           JUNCTION      0.16   564.97     0  02:11     0.00467        3.98       0.200
  WS02004405           JUNCTION      0.04   609.38     0  02:10      0.0011        3.97       0.282
  WS02004406           JUNCTION      0.00   543.87     0  02:37           0        3.96       0.529
  WS02004407           JUNCTION      0.00   539.37     0  02:41           0        3.94       0.028
  WS02004409           JUNCTION      0.00   538.80     0  02:41           0        3.94       0.067
  WS02004410           JUNCTION      0.00   538.49     0  02:41           0        3.93       0.114
  WS02004411           JUNCTION      0.00   538.41     0  02:41           0        3.93       0.144
  WS02004412           JUNCTION      0.00   538.21     0  02:42           0        3.92       0.191
  WS02004413           JUNCTION      0.00   538.09     0  02:42           0        3.92       0.352
  WS02006109           JUNCTION      1.23   553.34     0  02:03      0.0354        4.05       0.182
  WS02006110           JUNCTION      0.00   554.38     0  02:03           0        4.04       0.175
  WS02006111           JUNCTION      0.00   561.49     0  01:53           0        4.03       0.017
  WS02006112           JUNCTION      0.00   543.71     0  02:27           0        4.03       0.457
  WS02006113           JUNCTION      0.00   568.74     0  01:51           0        4.04       0.048
  WS02006115           JUNCTION      0.00   549.25     0  02:21           0        4.01       0.171
  WS02006116           JUNCTION      0.00   545.08     0  02:25           0        4.01       0.109
  WS02006228           JUNCTION      0.00   551.53     0  02:03           0        4.02       0.084
  WS02006229           JUNCTION      0.00   551.70     0  02:03           0        4.02       0.146
  WS02006230           JUNCTION     10.28   585.94     0  02:50       0.296        4.03       0.092
  WS02006231           JUNCTION      0.00   575.87     0  02:20           0        3.73       0.042
  WS02006232           JUNCTION      0.00   574.38     0  02:20           0        3.74       0.235
  WS02006234           JUNCTION      0.00   569.55     0  02:20           0        3.73      -0.450
  WS02006235           JUNCTION      0.00   562.24     0  02:20           0        3.86       0.437
  WS02006238           JUNCTION      0.00   431.80     0  03:36           0        3.05      -0.175
  WS02006239           JUNCTION      0.00   428.60     0  03:36           0        2.96      -0.211
  WS02006240           JUNCTION      0.00   424.18     0  03:36           0        2.91      -0.011
  WS02006242           JUNCTION      0.00   425.21     0  03:36           0         2.9      -0.021
  WS02006243           JUNCTION      0.00   426.13     0  03:36           0        2.88      -0.330
  WS02006245           JUNCTION      0.00   426.04     0  03:36           0        2.89       0.436
  WS02006247           JUNCTION      0.00   425.34     0  03:36           0        2.89       0.012
  WS02006248           JUNCTION      0.00   423.43     0  03:36           0        2.89      -0.026
  WS02006249           JUNCTION      0.00   459.02     0  00:00           0        3.08       0.406
  WS02006251           JUNCTION      0.08   406.95     0  02:50     0.00222        3.09       0.070
  WS02006252           JUNCTION      0.00   400.00     0  00:00           0        3.07      -0.544
  WS02006256           JUNCTION      0.00   300.00     0  00:00           0         1.2      -3.228
  WSF200               JUNCTION      0.00   537.92     0  02:43           0         3.9       0.012
  YS02001580           JUNCTION      0.00   220.26     0  01:37           0     0.00479       0.307
  YS02001583           JUNCTION      0.00   260.26     0  01:37           0      0.0146     -12.829
  YS02001586           JUNCTION    413.34   413.34     0  01:44        1.17        1.18       0.152
  YS02001590           JUNCTION      0.00   318.13     0  01:55           0         1.1      -0.045
  YS02001593           JUNCTION      0.00   317.99     0  01:51           0         1.1       0.003
  YS02001596           JUNCTION      0.00   317.91     0  01:43           0         1.1      -0.018
  YS02001600           JUNCTION      0.00   317.95     0  01:51           0         1.1      -0.007
  YS02001601           JUNCTION    790.77  1108.28     0  01:41        1.65        2.75       0.013
  YS02001602           JUNCTION      0.00   592.34     0  01:37           0           2       0.018
  YS02001605           JUNCTION      0.00   592.33     0  01:37           0        1.92       0.016
  YS02001607           JUNCTION      0.00   592.27     0  01:37           0        1.92       0.077
  YS02001610           JUNCTION      0.00   567.43     0  01:37           0        1.92       0.104
  YS02001613           JUNCTION      0.00   539.24     0  01:37           0        1.72       0.081
  YS02001616           JUNCTION      0.00   482.56     0  02:07           0        1.72       0.006
  YS02001619           JUNCTION    723.02   895.60     0  01:37        1.86        3.58      -0.009
  YS02001622           JUNCTION      0.00   845.24     0  01:38           0        3.58      -0.003
  YS02001625           JUNCTION      0.00   845.20     0  01:38           0        3.58       0.243
  YS02001629           JUNCTION      0.00   844.85     0  01:38           0        3.31       0.008
  YS02001633           JUNCTION    581.61  1373.45     0  01:38         1.2         4.5       0.069
  YS02001641           JUNCTION      0.00  1372.06     0  01:38           0         4.5       0.059
  YS02001644           JUNCTION    523.88  1856.84     0  01:38        1.03        5.53       0.057
  YS02001647           JUNCTION      0.00  1856.54     0  01:38           0        5.52       0.010
  YS02001649           JUNCTION      0.00  2178.30     0  01:39           0        6.45       0.003
  YS02001652           JUNCTION      0.00   578.00     0  01:43           0       0.931      -0.227
  YS02001655           JUNCTION      0.15   690.74     0  01:39     0.00443       0.933       0.089
  YS02001658           JUNCTION      0.00   600.06     0  01:46           0       0.929       0.000
  YS02001661           JUNCTION      0.00   512.43     0  01:41           0       0.929       0.031
  YS02001664           JUNCTION    508.15   508.15     0  01:40       0.929       0.929      -0.009
  YS02001745           JUNCTION    345.69   345.69     0  01:39       0.572       0.572       0.264
  YS02001748           JUNCTION      0.04   556.29     0  01:40      0.0013       0.574      -0.327
  YS02001751           JUNCTION      0.01   513.82     0  01:40    0.000317       0.581       0.148
  YS02001754           JUNCTION      0.26   422.93     0  01:41     0.00749        0.59      -0.318
  YS02001757           JUNCTION      0.00  3273.24     0  01:41           0        9.05       0.063
  YS02001759           JUNCTION    473.43  1163.92     0  01:40       0.787        2.01      -0.016
  YS02001762           JUNCTION      0.00   689.96     0  01:40           0        1.22       0.003
  YS02001765           JUNCTION      0.00   687.61     0  01:40           0        1.22       0.005
  YS02001767           JUNCTION      0.54   685.35     0  01:40      0.0154        1.22      -0.001
  YS02001770           JUNCTION    665.34   682.19     0  01:40        1.21        1.25      -0.013
  YS02001774           JUNCTION      0.00   421.51     0  01:39           0      0.0622       1.488
  YS02001779           JUNCTION      0.01   427.80     0  01:39    0.000144      0.0204      -1.258
  YS02001783           JUNCTION      0.00  1152.38     0  01:40           0        3.42       0.006
  YS02001784           JUNCTION      1.06  1153.58     0  01:40      0.0305        3.45       0.012
  YS02001786           JUNCTION      0.06  1153.49     0  01:40     0.00162        3.45       0.019
  YS02001788           JUNCTION      0.07  1157.32     0  01:39     0.00204        3.45       0.009
  YS02001790           JUNCTION      0.15  1162.54     0  01:43     0.00446        3.46       0.021
  YS02001791           JUNCTION      0.00  1267.73     0  01:48           0        3.46      -0.012
  YS02001793           JUNCTION      0.00  1242.24     0  01:44           0        3.46       0.009
  YS02001882           JUNCTION      0.00    74.39     0  01:37           0      0.0133       4.304
  YS02001884           JUNCTION      0.00   130.02     0  01:37           0      0.0493       5.187
  YS02001887           JUNCTION    537.82   557.32     0  01:37       0.833       0.867       0.492
  YS02001890           JUNCTION      0.00   557.37     0  01:37           0       0.826       0.600
  YS02001895           JUNCTION      0.00   563.38     0  01:37           0       0.819       0.161
  YS02001898           JUNCTION      0.00   549.37     0  01:38           0       0.818      -0.003
  YS02001901           JUNCTION      0.00   552.12     0  01:38           0        0.82       0.384
  YS02001904           JUNCTION      0.00   553.36     0  01:38           0        0.83       0.311
  YS02001907           JUNCTION      0.00  1515.15     0  01:40           0        2.66       0.647
  YS02001910           JUNCTION      0.00  1004.41     0  01:40           0        1.84       0.380
  YS02001915           JUNCTION    570.66  1004.35     0  01:40        1.15         1.9       0.074
  YS02001918           JUNCTION      0.00   638.19     0  01:38           0        0.78       0.013
  YS02001920           JUNCTION      2.87   579.61     0  01:38      0.0827       0.751       0.120
  YS02001923           JUNCTION      0.04   685.59     0  01:38     0.00109       0.649      -0.086
  YS02001926           JUNCTION      0.05   969.05     0  01:39      0.0015       0.628       0.013
  YS02001929           JUNCTION    269.44   778.98     0  01:39       0.605       0.612      -0.052
  YS02006553           JUNCTION      0.00   798.58     0  01:55           0        2.26       0.509
  YS02006556           JUNCTION      0.00   799.38     0  01:55           0        2.27       0.337
  YS02006558           JUNCTION    680.73  1179.78     0  01:38        1.21        3.46       0.094
  YS02006561           JUNCTION      0.00  1179.06     0  01:38           0        3.42      -0.004
  YS02163301           JUNCTION      0.00   845.25     0  02:08           0        3.31       0.038
  YS02163601           JUNCTION      0.11  1373.25     0  01:38     0.00317         4.5       0.105
  YS02164001           JUNCTION      0.00  1373.01     0  01:38           0         4.5       0.046
  CC-1                 OUTFALL       0.00   683.00     0  00:00           0        3.17       0.000
  CC-2                 OUTFALL       0.00   683.00     0  00:00           0        3.67       0.000
  JK-1                 OUTFALL       0.00  1000.00     0  00:00           0        1.13       0.000
  JK-2                 OUTFALL       0.00  1000.00     0  00:00           0        1.26       0.000
  WSC                  OUTFALL       0.00   556.28     0  02:44           0        4.42       0.000
  CC-storage           STORAGE       0.00  3273.83     0  01:41           0        11.3      -0.276
  JK-storage           STORAGE       0.00  1254.75     0  01:45           0        3.61      -0.468
  
  
  **********************
  Node Surcharge Summary
  **********************
  
  Surcharging occurs when water rises above the top of the highest conduit.
  ---------------------------------------------------------------------
                                               Max. Height   Min. Depth
                                   Hours       Above Crown    Below Rim
  Node                 Type      Surcharged         Meters       Meters
  ---------------------------------------------------------------------
  WS02004404           JUNCTION        0.02          0.046        2.734
  WS02006109           JUNCTION        1.37          0.289        1.531
  WS02006110           JUNCTION        0.63          0.249        1.601
  WS02006112           JUNCTION        0.70          0.082        1.598
  WS02006228           JUNCTION        1.36          0.293        1.907
  WS02006229           JUNCTION        1.37          0.341        2.109
  WS02006230           JUNCTION        0.64          0.230        1.340
  WS02006231           JUNCTION        0.71          0.304        1.226
  WS02006232           JUNCTION        1.43          1.067        0.413
  WS02006234           JUNCTION        0.97          0.969        0.271
  WS02006235           JUNCTION        1.34          1.024        0.266
  WS02006238           JUNCTION        1.38          1.041        0.389
  WS02006239           JUNCTION        1.35          0.969        0.321
  WS02006240           JUNCTION        1.35          0.940        0.450
  WS02006242           JUNCTION        1.45          0.820        0.000
  WS02006243           JUNCTION        1.35          0.632        0.138
  WS02006245           JUNCTION        1.34          0.552        0.298
  WS02006247           JUNCTION        1.35          0.523        0.237
  WS02006248           JUNCTION        1.33          0.380        0.000
  WS02006249           JUNCTION        1.34          0.390        0.000
  WS02006251           JUNCTION        0.75          0.318        0.862
  WS02006252           JUNCTION        1.86          1.100        0.000
  WS02006256           JUNCTION        6.83          2.050        0.000
  YS02001580           JUNCTION        0.43          0.450        0.000
  YS02001583           JUNCTION        0.43          0.500        0.000
  YS02001586           JUNCTION        0.59          0.510        0.000
  YS02001590           JUNCTION        0.66          0.750        0.000
  YS02001593           JUNCTION        0.66          0.840        0.000
  YS02001596           JUNCTION        0.74          1.061        0.009
  YS02001600           JUNCTION        0.87          1.190        0.000
  YS02001601           JUNCTION        1.26          1.440        0.000
  YS02001602           JUNCTION        1.12          1.270        0.000
  YS02001605           JUNCTION        1.06          1.180        0.000
  YS02001607           JUNCTION        0.61          0.680        0.000
  YS02001610           JUNCTION        0.63          0.680        0.000
  YS02001613           JUNCTION        0.60          0.700        0.000
  YS02001616           JUNCTION        0.56          0.610        0.000
  YS02001619           JUNCTION        0.55          0.610        0.000
  YS02001622           JUNCTION        0.55          0.620        0.000
  YS02001625           JUNCTION        0.71          0.780        0.000
  YS02001629           JUNCTION        0.49          0.470        0.000
  YS02001633           JUNCTION        0.72          1.028        0.032
  YS02001641           JUNCTION        0.66          0.975        0.125
  YS02001644           JUNCTION        0.63          0.920        0.000
  YS02001647           JUNCTION        0.43          0.835        0.065
  YS02001649           JUNCTION        0.54          0.991        0.059
  YS02001652           JUNCTION        0.34          1.130        0.000
  YS02001655           JUNCTION        0.11          1.200        0.000
  YS02001658           JUNCTION        0.01          0.833        0.467
  YS02001751           JUNCTION        0.03          1.200        0.000
  YS02001754           JUNCTION        0.11          1.150        0.000
  YS02001757           JUNCTION        0.59          0.950        0.260
  YS02001759           JUNCTION        0.49          0.911        0.299
  YS02001762           JUNCTION        0.45          1.052        0.098
  YS02001765           JUNCTION        0.41          1.013        0.087
  YS02001767           JUNCTION        0.37          1.030        0.000
  YS02001770           JUNCTION        0.35          0.920        0.000
  YS02001774           JUNCTION        0.43          1.027        0.023
  YS02001779           JUNCTION        0.17          0.680        0.000
  YS02001783           JUNCTION        0.43          1.343        0.257
  YS02001784           JUNCTION        0.41          0.903        0.587
  YS02001786           JUNCTION        0.31          0.329        1.101
  YS02001882           JUNCTION        0.38          0.830        0.000
  YS02001884           JUNCTION        0.39          0.861        0.009
  YS02001887           JUNCTION        0.42          0.875        0.075
  YS02001890           JUNCTION        0.43          0.760        0.000
  YS02001895           JUNCTION        0.37          0.750        0.000
  YS02001898           JUNCTION        0.36          0.740        0.000
  YS02001901           JUNCTION        0.41          0.870        0.000
  YS02001904           JUNCTION        0.40          0.837        0.013
  YS02001907           JUNCTION        0.60          0.950        0.000
  YS02001910           JUNCTION        0.46          0.979        0.121
  YS02001915           JUNCTION        0.38          1.000        0.000
  YS02001918           JUNCTION        0.29          0.810        0.000
  YS02001920           JUNCTION        0.31          1.106        0.034
  YS02001923           JUNCTION        0.01          0.820        0.000
  YS02001926           JUNCTION        0.01          0.900        0.000
  YS02001929           JUNCTION        0.01          0.780        0.000
  YS02006553           JUNCTION        0.61          1.152        0.038
  YS02006556           JUNCTION        0.53          1.304        0.046
  YS02006558           JUNCTION        0.52          1.393        0.007
  YS02006561           JUNCTION        0.26          1.150        0.000
  YS02163301           JUNCTION        0.71          0.936        0.094
  YS02163601           JUNCTION        0.74          1.077        0.003
  YS02164001           JUNCTION        0.67          0.992        0.108
  
  
  *********************
  Node Flooding Summary
  *********************
  
  Flooding refers to all water that overflows a node, whether it ponds or not.
  --------------------------------------------------------------------------
                                                             Total   Maximum
                                 Maximum   Time of Max       Flood    Ponded
                        Hours       Rate    Occurrence      Volume     Depth
  Node                 Flooded       LPS   days hr:min    10^6 ltr    Meters
  --------------------------------------------------------------------------
  WS02006242              0.01     69.38      0  03:25       0.000     0.000
  WS02006248              0.01      6.06      0  02:20       0.000     0.000
  WS02006249              0.73     82.05      0  03:01       0.179     0.000
  WS02006252              0.01    245.63      0  00:00       0.000     0.000
  WS02006256              1.10    293.19      0  00:00       0.380     0.000
  YS02001580              0.01    204.03      0  01:37       0.001     0.000
  YS02001583              0.01    233.83      0  01:37       0.000     0.000
  YS02001586              0.30    155.11      0  01:37       0.067     0.000
  YS02001590              0.01    137.63      0  01:36       0.000     0.000
  YS02001593              0.01    103.66      0  01:36       0.000     0.000
  YS02001600              0.01     10.58      0  01:36       0.000     0.000
  YS02001601              0.52    710.47      0  01:41       0.752     0.000
  YS02001602              0.38     62.04      0  01:47       0.076     0.000
  YS02001605              0.01     11.78      0  01:37       0.000     0.000
  YS02001607              0.01    253.64      0  01:37       0.001     0.000
  YS02001610              0.32    239.23      0  01:43       0.193     0.000
  YS02001613              0.01     53.39      0  01:37       0.000     0.000
  YS02001616              0.01    261.35      0  01:37       0.001     0.000
  YS02001619              0.01    140.09      0  01:37       0.000     0.000
  YS02001622              0.01    114.48      0  01:37       0.000     0.000
  YS02001625              0.27    628.99      0  01:42       0.264     0.000
  YS02001629              0.01    266.72      0  01:37       0.002     0.000
  YS02001644              0.01     31.56      0  01:40       0.000     0.000
  YS02001652              0.01     33.31      0  01:40       0.000     0.000
  YS02001655              0.01    447.32      0  01:40       0.001     0.000
  YS02001751              0.01    364.61      0  01:40       0.000     0.000
  YS02001754              0.01    128.14      0  01:40       0.000     0.000
  YS02001767              0.01    234.83      0  01:39       0.000     0.000
  YS02001770              0.01      8.90      0  01:40       0.000     0.000
  YS02001779              0.01    398.85      0  01:39       0.003     0.000
  YS02001882              0.01     58.20      0  01:37       0.000     0.000
  YS02001890              0.02    173.29      0  01:38       0.002     0.000
  YS02001895              0.01    232.23      0  01:37       0.000     0.000
  YS02001898              0.01    206.40      0  01:38       0.000     0.000
  YS02001901              0.01     22.57      0  01:38       0.000     0.000
  YS02001907              0.24   1040.32      0  01:40       0.392     0.000
  YS02001915              0.01    242.76      0  01:38       0.000     0.000
  YS02001918              0.01    152.41      0  01:38       0.002     0.000
  YS02001923              0.01    138.68      0  01:39       0.000     0.000
  YS02001926              0.01    720.96      0  01:39       0.002     0.000
  YS02001929              0.01    554.79      0  01:39       0.003     0.000
  YS02006561              0.01     55.06      0  01:39       0.000     0.000
  
  
  **********************
  Storage Volume Summary
  **********************
  
  ------------------------------------------------------------------------------------------------
                         Average    Avg   Evap  Exfil     Maximum    Max    Time of Max    Maximum
                          Volume   Pcnt   Pcnt   Pcnt      Volume   Pcnt     Occurrence    Outflow
  Storage Unit           1000 m³   Full   Loss   Loss     1000 m³   Full    days hr:min        LPS
  ------------------------------------------------------------------------------------------------
  CC-storage               2.118   33.0    0.0    0.0       3.979   62.1       0  02:08    1783.53
  JK-storage               0.073   25.1    0.0    0.0       0.211   72.6       0  02:06    2300.00
  
  
  ***********************
  Outfall Loading Summary
  ***********************
  
  -----------------------------------------------------------
                         Flow       Avg       Max       Total
                         Freq      Flow      Flow      Volume
  Outfall Node           Pcnt       LPS       LPS    10^6 ltr
  -----------------------------------------------------------
  CC-1                  24.34    683.00    683.00       3.174
  CC-2                  31.04    683.00    683.00       3.667
  JK-1                   6.33   1000.00   1000.00       1.135
  JK-2                   8.01   1000.00   1000.00       1.258
  WSC                   99.95    222.00    556.28       4.416
  -----------------------------------------------------------
  System                33.93   3588.00   3912.61      13.649
  
  
  ********************
  Link Flow Summary
  ********************
  
  -----------------------------------------------------------------------------
                                 Maximum  Time of Max   Maximum    Max/    Max/
                                  |Flow|   Occurrence   |Veloc|    Full    Full
  Link                 Type          LPS  days hr:min     m/sec    Flow   Depth
  -----------------------------------------------------------------------------
  1                    CONDUIT    556.28     0  02:44      2.83    0.19    0.30
  WS02003060WS02003069 CONDUIT    554.37     0  02:43      1.64    0.22    0.34
  WS02003066WSF200     CONDUIT    537.92     0  02:43      2.85    0.09    0.22
  WS02003067WS02003066 CONDUIT    537.91     0  02:42      1.21    0.17    0.42
  WS02003069WS02003072 CONDUIT    554.60     0  02:43      1.37    0.27    0.39
  WS02003072WS02003073 CONDUIT    554.55     0  02:44      1.44    1.20    0.37
  WS02004401WS02004402 CONDUIT    540.16     0  02:40      1.07    0.65    0.89
  WS02004402WS02004403 CONDUIT    548.85     0  02:11      1.10    0.79    0.91
  WS02004403WS02004404 CONDUIT    564.80     0  02:11      1.05    0.41    0.96
  WS02004404WS02004405 CONDUIT    609.34     0  02:10      1.22    5.97    0.98
  WS02004405WS02004406 CONDUIT    543.87     0  02:37      1.19    1.07    0.96
  WS02004406WS02004407 CONDUIT    539.37     0  02:41      1.04    0.24    0.63
  WS02004407WS02004409 CONDUIT    538.80     0  02:41      1.52    0.19    0.48
  WS02004409WS02004410 CONDUIT    538.49     0  02:41      1.06    0.70    0.68
  WS02004410WS02004411 CONDUIT    538.41     0  02:41      1.10    0.74    0.69
  WS02004411WS02004412 CONDUIT    538.21     0  02:42      1.14    0.76    0.69
  WS02004412WS02004413 CONDUIT    538.09     0  02:42      1.17    0.36    0.78
  WS02004413WS02003067 CONDUIT    537.92     0  02:42      1.11    0.23    0.59
  WS02006109WS02006110 CONDUIT    554.38     0  02:03      1.10    1.07    1.00
  WS02006110WS02006113 CONDUIT    568.74     0  01:51      1.38    0.52    0.78
  WS02006111WS02006112 CONDUIT    543.71     0  02:27      1.84    0.26    0.67
  WS02006112WS02006115 CONDUIT    549.25     0  02:21      0.80    0.32    0.88
  WS02006113WS02006111 CONDUIT    561.49     0  01:53      2.47    0.67    0.46
  WS02006115WS02006116 CONDUIT    545.08     0  02:25      1.18    0.70    0.78
  WS02006116WS02004401 CONDUIT    537.64     0  02:38      1.07    0.74    0.87
  WS02006228WS02006109 CONDUIT    552.11     0  02:03      1.10    2.41    1.00
  WS02006229WS02006228 CONDUIT    551.53     0  02:03      1.11    1.83    1.00
  WS02006230WS02006229 CONDUIT    551.70     0  02:03      1.43   12.28    1.00
  WS02006231WS02006230 CONDUIT    575.66     0  02:50      1.56    8.73    1.00
  WS02006232WS02006231 CONDUIT    575.87     0  02:20      1.51    1.21    1.00
  WS02006234WS02006232 CONDUIT    574.38     0  02:20      1.49    1.16    1.00
  WS02006235WS02006234 CONDUIT    569.55     0  02:20      1.48    6.01    1.00
  WS02006238WS02006235 CONDUIT    431.22     0  03:36      1.45    0.96    1.00
  WS02006239WS02006238 CONDUIT    431.80     0  03:36      1.12    1.38    1.00
  WS02006240WS02006239 CONDUIT    428.60     0  03:36      1.24    1.35    1.00
  WS02006242WS02006240 CONDUIT    424.18     0  03:36      1.13    1.68    1.00
  WS02006243WS02006242 CONDUIT    425.21     0  03:36      1.40    0.91    1.00
  WS02006245WS02006243 CONDUIT    426.13     0  03:36      1.45    1.26    1.00
  WS02006247WS02006245 CONDUIT    426.04     0  03:36      1.43    3.38    1.00
  WS02006248WS02006247 CONDUIT    425.34     0  03:36      1.44    0.93    1.00
  WS02006249WS02006248 CONDUIT    423.43     0  03:36      1.36    2.32    1.00
  WS02006251WS02006249 CONDUIT    459.02     0  00:00      1.99    1.32    1.00
  WS02006252WS02006251 CONDUIT    406.87     0  02:50     25.70    1.49    1.00
  WS02006256WS02006235 CONDUIT    288.91     0  00:00      4.23    3.06    1.00
  WSF200WS02003060     CONDUIT    538.00     0  02:43      2.06    0.12    0.28
  YS02001580YS02001583 CONDUIT    220.26     0  01:37      1.02    0.85    1.00
  YS02001583YS02001586 CONDUIT    236.34     0  01:37      1.09    0.36    1.00
  YS02001586YS02001590 CONDUIT    318.13     0  01:55      1.32    0.56    1.00
  YS02001590YS02001593 CONDUIT    317.99     0  01:51      1.12    2.00    1.00
  YS02001593YS02001596 CONDUIT    317.91     0  01:43      1.72    0.50    1.00
  YS02001596YS02001600 CONDUIT    317.95     0  01:51      1.19    0.62    1.00
  YS02001600YS02001601 CONDUIT    317.82     0  01:55      1.12    0.55    1.00
  YS02001601YS02001602 CONDUIT    592.34     0  01:37      2.09    2.14    1.00
  YS02001602YS02001605 CONDUIT    592.33     0  01:37      2.09   12.53    1.00
  YS02001605YS02001607 CONDUIT    592.27     0  01:37      2.09    3.25    1.00
  YS02001607YS02001610 CONDUIT    567.43     0  01:37      0.77    0.54    1.00
  YS02001610YS02001613 CONDUIT    539.24     0  01:37      0.72    0.62    1.00
  YS02001613YS02001616 CONDUIT    482.56     0  02:07      0.70    0.41    1.00
  YS02001616YS02001619 CONDUIT    483.58     0  02:08      0.67    0.84    1.00
  YS02001619YS02001622 CONDUIT    845.24     0  01:38      1.40    1.25    1.00
  YS02001622YS02001625 CONDUIT    845.20     0  01:38      1.08    0.45    1.00
  YS02001625YS02001629 CONDUIT    844.85     0  01:38      1.08    0.40    1.00
  YS02001629YS02163301 CONDUIT    845.25     0  02:08      1.08    1.04    1.00
  YS02001633YS02163601 CONDUIT   1373.14     0  01:38      1.75    1.44    1.00
  YS02001641YS02001644 CONDUIT   1372.04     0  01:38      1.75    4.44    1.00
  YS02001644YS02001647 CONDUIT   1856.54     0  01:38      2.36    1.09    1.00
  YS02001647YS02001649 CONDUIT   1861.35     0  01:38      2.37    0.98    1.00
  YS02001649YS02001757 CONDUIT   2176.15     0  01:39      2.77    1.32    1.00
  YS02001652YS02001649 CONDUIT    578.49     0  01:43      0.95    0.29    1.00
  YS02001655YS02001652 CONDUIT    578.00     0  01:43      1.71    0.28    1.00
  YS02001658YS02001655 CONDUIT    690.58     0  01:39      2.12    0.29    1.00
  YS02001661YS02001658 CONDUIT    600.06     0  01:46      2.42    0.24    0.85
  YS02001664YS02001661 CONDUIT    512.43     0  01:41      2.32    0.16    0.52
  YS02001745YS02001748 CONDUIT    493.28     0  01:41      2.30    0.19    0.61
  YS02001748YS02001751 CONDUIT    464.64     0  01:40      1.91    0.23    0.96
  YS02001751YS02001754 CONDUIT    422.67     0  01:41      1.76    0.20    1.00
  YS02001754YS02001757 CONDUIT    423.23     0  01:41      0.71    0.17    1.00
  YS02001757CaochengTiaoxuchi CONDUIT   3273.83     0  01:41      4.41    1.42    1.00
  YS02001759YS02001757 CONDUIT   1165.85     0  01:40      1.48    0.83    1.00
  YS02001762YS02001759 CONDUIT    692.23     0  01:40      0.88    0.80    1.00
  YS02001765YS02001762 CONDUIT    689.96     0  01:40      0.88    0.65    1.00
  YS02001767YS02001765 CONDUIT    687.61     0  01:40      0.90    0.86    1.00
  YS02001770YS02001767 CONDUIT    684.81     0  01:40      0.99    2.71    1.00
  YS02001774YS02001770 CONDUIT    421.51     0  01:39      0.54    0.27    1.00
  YS02001779YS02001774 CONDUIT    427.79     0  01:39      0.55    0.22    1.00
  YS02001783YS02001784 CONDUIT   1152.52     0  01:40      2.29    1.59    1.00
  YS02001784YS02001785 CONDUIT   1153.43     0  01:40      2.29    2.68    1.00
  YS02001786YS02001788 CONDUIT   1157.25     0  01:39      2.50    2.23    0.89
  YS02001788YS02001790 CONDUIT   1162.39     0  01:43      2.71    0.86    0.83
  YS02001790YS02001791 CONDUIT   1267.73     0  01:48      3.41    1.38    0.70
  YS02001791YS02001793 CONDUIT   1242.24     0  01:44      6.72    0.53    0.43
  YS02001793JiankangQianchi CONDUIT   1254.75     0  01:45      2.51    0.10    0.64
  YS02001882YS02001884 CONDUIT     74.39     0  01:37      0.14    0.09    1.00
  YS02001884YS02001887 CONDUIT    130.02     0  01:37      0.17    0.17    1.00
  YS02001887YS02001890 CONDUIT    557.37     0  01:37      0.71    0.95    1.00
  YS02001890YS02001895 CONDUIT    563.38     0  01:37      0.72    0.26    1.00
  YS02001895YS02001898 CONDUIT    549.37     0  01:38      0.70    0.95    1.00
  YS02001898YS02001901 CONDUIT    552.12     0  01:38      0.70    0.36    1.00
  YS02001901YS02001904 CONDUIT    553.36     0  01:38      0.70    0.86    1.00
  YS02001904YS02001907 CONDUIT    554.74     0  01:38      0.71    0.19    1.00
  YS02001907YS02006553 CONDUIT    798.58     0  01:55      0.89    0.94    1.00
  YS02001910YS02001907 CONDUIT   1004.54     0  01:40      1.28    0.57    1.00
  YS02001915YS02001910 CONDUIT   1004.41     0  01:40      1.28    0.50    1.00
  YS02001918YS02001915 CONDUIT    638.19     0  01:38      0.83    0.35    1.00
  YS02001920YS02001918 CONDUIT    576.74     0  01:38      0.73    0.56    1.00
  YS02001923YS02001920 CONDUIT    586.19     0  01:38      0.86    0.26    1.00
  YS02001926YS02001923 CONDUIT    763.06     0  01:39      1.20    1.09    1.00
  YS02001929YS02001926 CONDUIT    532.81     0  01:39      1.18    0.25    1.00
  YS02006553YS02006556 CONDUIT    799.38     0  01:55      1.02    0.68    1.00
  YS02006556YS02006558 CONDUIT    800.17     0  01:55      1.02    0.63    1.00
  YS02006558YS02006561 CONDUIT   1179.06     0  01:38      4.17    2.61    1.00
  YS02006561YS02001783 CONDUIT   1152.38     0  01:40      2.29    0.60    1.00
  YS02163301YS02001633 CONDUIT    845.50     0  01:59      1.08    0.79    1.00
  YS02163601YS02164001 CONDUIT   1373.01     0  01:38      1.75    1.22    1.00
  YS02164001YS02001641 CONDUIT   1372.06     0  01:38      1.75    1.87    1.00
  CC-R1                PUMP       683.00     0  00:00              1.00
  CC-R2                PUMP       683.00     0  00:00              1.00
  CC-S1                PUMP       200.00     0  00:00              1.00
  CC-S2                PUMP       200.00     0  00:00              1.00
  JK-R1                PUMP      1000.00     0  00:00              1.00
  JK-R2                PUMP      1000.00     0  00:00              1.00
  JK-S                 PUMP       300.00     0  00:00              1.00
  
  
  ***************************
  Flow Classification Summary
  ***************************
  
  -------------------------------------------------------------------------------------
                      Adjusted    ---------- Fraction of Time in Flow Class ---------- 
                       /Actual         Up    Down  Sub   Sup   Up    Down  Norm  Inlet 
  Conduit               Length    Dry  Dry   Dry   Crit  Crit  Crit  Crit  Ltd   Ctrl  
  -------------------------------------------------------------------------------------
  1                       1.00   0.00  0.00  0.00  0.00  1.00  0.00  0.00  0.32  0.00
  WS02003060WS02003069    1.00   0.00  0.00  0.00  0.97  0.03  0.00  0.00  0.76  0.00
  WS02003066WSF200        1.00   0.05  0.00  0.00  0.00  0.95  0.00  0.00  0.84  0.00
  WS02003067WS02003066    1.00   0.05  0.00  0.00  0.95  0.00  0.00  0.00  0.00  0.00
  WS02003069WS02003072    1.00   0.00  0.00  0.00  0.99  0.01  0.00  0.00  0.79  0.00
  WS02003072WS02003073    1.00   0.00  0.00  0.00  0.00  0.00  0.00  1.00  0.00  0.00
  WS02004401WS02004402    1.00   0.02  0.00  0.00  0.98  0.00  0.00  0.00  0.00  0.00
  WS02004402WS02004403    1.00   0.02  0.00  0.00  0.97  0.00  0.00  0.00  0.00  0.00
  WS02004403WS02004404    1.00   0.00  0.03  0.00  0.97  0.00  0.00  0.00  0.00  0.00
  WS02004404WS02004405    1.00   0.00  0.00  0.00  1.00  0.00  0.00  0.00  0.01  0.00
  WS02004405WS02004406    1.00   0.00  0.00  0.00  1.00  0.00  0.00  0.00  0.00  0.00
  WS02004406WS02004407    1.00   0.00  0.04  0.00  0.96  0.00  0.00  0.00  0.00  0.00
  WS02004407WS02004409    1.00   0.04  0.00  0.00  0.95  0.01  0.00  0.00  0.96  0.00
  WS02004409WS02004410    1.00   0.04  0.00  0.00  0.96  0.00  0.00  0.00  0.00  0.00
  WS02004410WS02004411    1.00   0.04  0.00  0.00  0.96  0.00  0.00  0.00  0.00  0.00
  WS02004411WS02004412    1.00   0.04  0.00  0.00  0.96  0.00  0.00  0.00  0.00  0.00
  WS02004412WS02004413    1.00   0.04  0.00  0.00  0.96  0.00  0.00  0.00  0.00  0.00
  WS02004413WS02003067    1.00   0.04  0.01  0.00  0.00  0.00  0.95  0.00  0.00  0.00
  WS02006109WS02006110    1.00   0.00  0.01  0.00  0.98  0.00  0.01  0.00  0.00  0.00
  WS02006110WS02006113    1.00   0.01  0.01  0.00  0.98  0.00  0.00  0.00  0.00  0.00
  WS02006111WS02006112    1.00   0.02  0.00  0.00  0.98  0.00  0.00  0.00  0.98  0.00
  WS02006112WS02006115    1.00   0.02  0.00  0.00  0.97  0.00  0.00  0.00  0.00  0.00
  WS02006113WS02006111    1.00   0.02  0.00  0.00  0.00  0.98  0.00  0.00  0.11  0.00
  WS02006115WS02006116    1.00   0.02  0.00  0.00  0.97  0.00  0.00  0.01  0.00  0.00
  WS02006116WS02004401    1.00   0.02  0.00  0.00  0.98  0.00  0.00  0.00  0.00  0.00
  WS02006228WS02006109    1.00   0.00  0.00  0.00  1.00  0.00  0.00  0.00  0.01  0.00
  WS02006229WS02006228    1.00   0.00  0.00  0.00  0.99  0.00  0.00  0.01  0.00  0.00
  WS02006230WS02006229    1.00   0.00  0.00  0.00  0.99  0.00  0.00  0.01  0.04  0.00
  WS02006231WS02006230    1.00   0.00  0.00  0.00  0.21  0.00  0.78  0.00  0.00  0.00
  WS02006232WS02006231    1.00   0.00  0.00  0.00  0.99  0.00  0.01  0.00  0.00  0.00
  WS02006234WS02006232    1.00   0.00  0.00  0.00  1.00  0.00  0.00  0.00  0.05  0.00
  WS02006235WS02006234    1.00   0.00  0.00  0.00  0.91  0.00  0.09  0.00  0.00  0.00
  WS02006238WS02006235    1.00   0.00  0.00  0.00  1.00  0.00  0.00  0.00  0.01  0.00
  WS02006239WS02006238    1.00   0.00  0.00  0.00  1.00  0.00  0.00  0.00  0.15  0.00
  WS02006240WS02006239    1.00   0.00  0.00  0.00  0.66  0.00  0.00  0.34  0.05  0.00
  WS02006242WS02006240    1.00   0.00  0.00  0.00  0.99  0.00  0.01  0.00  0.00  0.00
  WS02006243WS02006242    1.00   0.00  0.00  0.00  0.99  0.00  0.00  0.01  0.64  0.00
  WS02006245WS02006243    1.00   0.00  0.00  0.00  0.76  0.00  0.00  0.24  0.00  0.00
  WS02006247WS02006245    1.00   0.00  0.00  0.00  0.96  0.00  0.00  0.03  0.00  0.00
  WS02006248WS02006247    1.00   0.00  0.00  0.00  0.98  0.00  0.00  0.01  0.59  0.00
  WS02006249WS02006248    1.00   0.00  0.00  0.00  0.37  0.00  0.63  0.00  0.00  0.00
  WS02006251WS02006249    1.00   0.00  0.00  0.00  0.99  0.01  0.00  0.00  0.62  0.00
  WS02006252WS02006251    1.00   0.00  0.51  0.00  0.09  0.00  0.40  0.00  0.00  0.00
  WS02006256WS02006235    1.00   0.00  0.00  0.00  0.97  0.03  0.00  0.00  0.01  0.00
  WSF200WS02003060        1.00   0.00  0.05  0.00  0.48  0.46  0.00  0.00  0.68  0.00
  YS02001580YS02001583    1.00   0.20  0.63  0.00  0.17  0.00  0.00  0.00  0.72  0.00
  YS02001583YS02001586    1.00   0.44  0.33  0.00  0.23  0.00  0.00  0.00  0.72  0.00
  YS02001586YS02001590    1.00   0.13  0.00  0.00  0.39  0.04  0.00  0.44  0.34  0.00
  YS02001590YS02001593    1.00   0.13  0.01  0.00  0.09  0.00  0.77  0.00  0.00  0.00
  YS02001593YS02001596    1.00   0.14  0.00  0.00  0.11  0.01  0.00  0.75  0.02  0.00
  YS02001596YS02001600    1.00   0.14  0.00  0.00  0.18  0.01  0.00  0.66  0.06  0.00
  YS02001600YS02001601    1.00   0.13  0.01  0.00  0.86  0.00  0.00  0.00  0.62  0.00
  YS02001601YS02001602    1.00   0.13  0.01  0.00  0.86  0.00  0.00  0.00  0.00  0.00
  YS02001602YS02001605    1.00   0.14  0.00  0.00  0.86  0.00  0.00  0.00  0.00  0.00
  YS02001605YS02001607    1.00   0.14  0.00  0.00  0.86  0.00  0.00  0.00  0.00  0.00
  YS02001607YS02001610    1.00   0.13  0.01  0.00  0.86  0.00  0.00  0.00  0.02  0.00
  YS02001610YS02001613    1.00   0.13  0.00  0.00  0.87  0.00  0.00  0.00  0.01  0.00
  YS02001613YS02001616    1.00   0.13  0.00  0.00  0.87  0.00  0.00  0.00  0.00  0.00
  YS02001616YS02001619    1.00   0.13  0.00  0.00  0.87  0.00  0.00  0.00  0.00  0.00
  YS02001619YS02001622    1.00   0.13  0.00  0.00  0.87  0.00  0.00  0.00  0.30  0.00
  YS02001622YS02001625    1.00   0.13  0.00  0.00  0.87  0.00  0.00  0.00  0.05  0.00
  YS02001625YS02001629    1.00   0.13  0.05  0.00  0.13  0.00  0.69  0.00  0.00  0.00
  YS02001629YS02163301    1.00   0.16  0.01  0.00  0.83  0.00  0.00  0.00  0.00  0.00
  YS02001633YS02163601    1.00   0.00  0.01  0.00  0.99  0.00  0.00  0.00  0.15  0.00
  YS02001641YS02001644    1.00   0.00  0.01  0.00  0.99  0.00  0.00  0.00  0.00  0.00
  YS02001644YS02001647    1.00   0.00  0.17  0.00  0.83  0.00  0.00  0.00  0.00  0.00
  YS02001647YS02001649    1.00   0.00  0.17  0.00  0.52  0.31  0.00  0.00  0.58  0.00
  YS02001649YS02001757    1.00   0.00  0.00  0.00  0.68  0.32  0.00  0.00  0.53  0.00
  YS02001652YS02001649    1.00   0.00  0.00  0.00  0.97  0.03  0.00  0.00  0.75  0.00
  YS02001655YS02001652    1.00   0.00  0.00  0.00  0.15  0.02  0.00  0.83  0.07  0.00
  YS02001658YS02001655    1.00   0.00  0.14  0.00  0.63  0.22  0.00  0.00  0.73  0.00
  YS02001661YS02001658    1.00   0.14  0.00  0.00  0.47  0.38  0.00  0.00  0.77  0.00
  YS02001664YS02001661    1.00   0.13  0.00  0.00  0.75  0.12  0.00  0.00  0.86  0.00
  YS02001745YS02001748    1.00   0.00  0.00  0.00  0.06  0.01  0.00  0.93  0.06  0.00
  YS02001748YS02001751    1.00   0.00  0.00  0.00  0.80  0.20  0.00  0.00  0.80  0.00
  YS02001751YS02001754    1.00   0.00  0.00  0.00  0.12  0.01  0.00  0.87  0.03  0.00
  YS02001754YS02001757    1.00   0.00  0.00  0.00  1.00  0.00  0.00  0.00  0.86  0.00
  YS02001757CaochengTiaoxuchi    1.00   0.00  0.00  0.00  0.98  0.02  0.00  0.00  0.85  0.00
  YS02001759YS02001757    1.00   0.00  0.00  0.00  1.00  0.00  0.00  0.00  0.63  0.00
  YS02001762YS02001759    1.00   0.00  0.00  0.00  1.00  0.00  0.00  0.00  0.04  0.00
  YS02001765YS02001762    1.00   0.00  0.00  0.00  1.00  0.00  0.00  0.00  0.76  0.00
  YS02001767YS02001765    1.00   0.00  0.00  0.00  1.00  0.00  0.00  0.00  0.00  0.00
  YS02001770YS02001767    1.00   0.00  0.00  0.00  1.00  0.00  0.00  0.00  0.00  0.00
  YS02001774YS02001770    1.00   0.00  0.13  0.00  0.69  0.00  0.18  0.00  0.03  0.00
  YS02001779YS02001774    1.00   0.00  0.00  0.00  1.00  0.00  0.00  0.00  0.80  0.00
  YS02001783YS02001784    1.00   0.00  0.18  0.00  0.82  0.00  0.00  0.00  0.57  0.00
  YS02001784YS02001785    1.00   0.00  0.00  0.00  1.00  0.00  0.00  0.00  0.17  0.00
  YS02001786YS02001788    1.00   0.00  0.00  0.00  0.79  0.21  0.00  0.00  0.00  0.00
  YS02001788YS02001790    1.00   0.00  0.00  0.00  0.20  0.80  0.00  0.00  0.84  0.00
  YS02001790YS02001791    1.00   0.00  0.00  0.00  0.01  0.99  0.00  0.00  0.16  0.00
  YS02001791YS02001793    1.00   0.00  0.00  0.00  0.00  1.00  0.00  0.00  0.00  0.00
  YS02001793JiankangQianchi    1.00   0.00  0.00  0.00  0.97  0.03  0.00  0.00  0.98  0.00
  YS02001882YS02001884    1.00   0.16  0.01  0.00  0.84  0.00  0.00  0.00  0.00  0.00
  YS02001884YS02001887    1.00   0.06  0.05  0.00  0.89  0.00  0.00  0.00  0.00  0.00
  YS02001887YS02001890    1.00   0.00  0.00  0.00  0.97  0.00  0.03  0.00  0.00  0.00
  YS02001890YS02001895    1.00   0.00  0.16  0.00  0.83  0.00  0.00  0.00  0.00  0.00
  YS02001895YS02001898    1.00   0.17  0.00  0.00  0.82  0.00  0.01  0.00  0.00  0.00
  YS02001898YS02001901    1.00   0.17  0.00  0.00  0.83  0.00  0.00  0.00  0.01  0.00
  YS02001901YS02001904    1.00   0.17  0.00  0.00  0.83  0.00  0.00  0.00  0.00  0.00
  YS02001904YS02001907    1.00   0.00  0.17  0.00  0.83  0.00  0.00  0.00  0.00  0.00
  YS02001907YS02006553    1.00   0.00  0.02  0.00  0.98  0.00  0.00  0.00  0.00  0.00
  YS02001910YS02001907    1.00   0.00  0.00  0.00  0.97  0.00  0.00  0.03  0.12  0.00
  YS02001915YS02001910    1.00   0.00  0.00  0.00  0.96  0.04  0.00  0.00  0.16  0.00
  YS02001918YS02001915    1.00   0.00  0.01  0.00  0.98  0.02  0.00  0.00  0.77  0.00
  YS02001920YS02001918    1.00   0.00  0.01  0.00  0.99  0.00  0.00  0.00  0.00  0.00
  YS02001923YS02001920    1.00   0.00  0.00  0.00  1.00  0.00  0.00  0.00  0.94  0.00
  YS02001926YS02001923    1.00   0.00  0.07  0.00  0.05  0.00  0.88  0.00  0.00  0.00
  YS02001929YS02001926    1.00   0.00  0.13  0.00  0.87  0.00  0.00  0.00  0.83  0.00
  YS02006553YS02006556    1.00   0.01  0.00  0.00  0.99  0.00  0.00  0.00  0.03  0.00
  YS02006556YS02006558    1.00   0.00  0.00  0.00  1.00  0.00  0.00  0.00  0.00  0.00
  YS02006558YS02006561    1.00   0.18  0.00  0.00  0.04  0.78  0.00  0.00  0.20  0.00
  YS02006561YS02001783    1.00   0.18  0.00  0.00  0.07  0.75  0.00  0.00  0.71  0.00
  YS02163301YS02001633    1.00   0.00  0.16  0.00  0.84  0.00  0.00  0.00  0.00  0.00
  YS02163601YS02164001    1.00   0.00  0.08  0.00  0.92  0.00  0.00  0.00  0.00  0.00
  YS02164001YS02001641    1.00   0.01  0.07  0.00  0.92  0.00  0.00  0.00  0.06  0.00
  
  
  *************************
  Conduit Surcharge Summary
  *************************
  
  ----------------------------------------------------------------------------
                                                           Hours        Hours 
                         --------- Hours Full --------   Above Full   Capacity
  Conduit                Both Ends  Upstream  Dnstream   Normal Flow   Limited
  ----------------------------------------------------------------------------
  WS02003072WS02003073        0.01      0.01      0.01      0.99         0.01
  WS02004403WS02004404        0.01      0.01      0.02      0.01         0.01
  WS02004404WS02004405        0.01      0.02      0.01      2.61         0.01
  WS02004405WS02004406        0.01      0.01      0.01      0.52         0.01
  WS02006109WS02006110        0.63      0.63      1.43      0.70         0.01
  WS02006110WS02006113        0.01      0.01      1.40      0.01         0.01
  WS02006111WS02006112        0.01      0.01      1.87      0.01         0.01
  WS02006112WS02006115        0.01      0.01      0.70      0.01         0.01
  WS02006228WS02006109        1.37      1.43      1.37      2.13         1.37
  WS02006229WS02006228        1.36      1.37      1.36      1.85         1.35
  WS02006230WS02006229        1.57      1.80      1.57      2.93         1.57
  WS02006231WS02006230        0.64      0.64      0.74      2.69         0.01
  WS02006232WS02006231        0.71      0.71      1.43      0.78         0.01
  WS02006234WS02006232        1.33      1.33      1.43      0.77         0.76
  WS02006235WS02006234        0.96      0.97      1.34      2.60         0.01
  WS02006238WS02006235        1.36      1.36      1.43      0.01         0.01
  WS02006239WS02006238        1.37      1.40      1.38      1.69         1.27
  WS02006240WS02006239        1.34      1.37      1.35      1.66         1.19
  WS02006242WS02006240        1.35      1.35      1.54      1.91         0.01
  WS02006243WS02006242        1.35      1.35      1.45      0.01         0.03
  WS02006245WS02006243        1.34      1.34      1.35      1.02         0.70
  WS02006247WS02006245        1.34      1.36      1.34      2.35         1.33
  WS02006248WS02006247        1.33      1.33      1.35      0.01         0.03
  WS02006249WS02006248        1.33      1.33      1.34      2.32         0.01
  WS02006251WS02006249        1.33      1.34      1.34      1.75         1.28
  WS02006252WS02006251        1.81      1.81      1.85      1.82         0.01
  WS02006256WS02006235        2.58      2.63      6.71      1.16         0.01
  YS02001580YS02001583        0.42      0.43      0.48      0.01         0.01
  YS02001583YS02001586        0.43      0.43      0.59      0.01         0.01
  YS02001586YS02001590        0.59      0.59      0.66      0.01         0.01
  YS02001590YS02001593        0.66      0.66      0.67      0.71         0.01
  YS02001593YS02001596        0.66      0.66      0.74      0.01         0.01
  YS02001596YS02001600        0.78      0.78      0.87      0.01         0.01
  YS02001600YS02001601        0.93      0.93      1.26      0.01         0.01
  YS02001601YS02001602        1.12      1.12      1.31      0.89         0.01
  YS02001602YS02001605        1.06      1.06      1.12      2.05         0.01
  YS02001605YS02001607        1.02      1.06      1.02      1.20         1.02
  YS02001607YS02001610        0.61      0.61      0.63      0.01         0.01
  YS02001610YS02001613        0.60      0.60      0.63      0.01         0.01
  YS02001613YS02001616        0.56      0.56      0.60      0.01         0.01
  YS02001616YS02001619        0.55      0.55      0.56      0.01         0.01
  YS02001619YS02001622        0.54      0.55      0.54      0.69         0.52
  YS02001622YS02001625        0.54      0.54      0.71      0.01         0.01
  YS02001625YS02001629        0.49      0.49      0.71      0.01         0.01
  YS02001629YS02163301        0.70      0.70      0.71      0.25         0.21
  YS02001633YS02163601        0.72      0.72      0.75      0.48         0.48
  YS02001641YS02001644        0.63      0.66      0.63      1.38         0.63
  YS02001644YS02001647        0.43      0.43      0.63      0.03         0.01
  YS02001647YS02001649        0.43      0.43      0.54      0.01         0.01
  YS02001649YS02001757        0.54      0.54      0.59      0.32         0.30
  YS02001652YS02001649        0.37      0.37      0.54      0.01         0.01
  YS02001655YS02001652        0.11      0.11      0.34      0.01         0.01
  YS02001658YS02001655        0.01      0.01      0.11      0.01         0.01
  YS02001661YS02001658        0.01      0.01      0.01      0.01         0.01
  YS02001748YS02001751        0.01      0.01      0.03      0.01         0.01
  YS02001751YS02001754        0.03      0.03      0.11      0.01         0.01
  YS02001754YS02001757        0.20      0.20      0.59      0.01         0.01
  YS02001757CaochengTiaoxuchi        0.44      0.59      1.16      0.31         0.14
  YS02001759YS02001757        0.49      0.49      0.59      0.01         0.01
  YS02001762YS02001759        0.45      0.45      0.49      0.01         0.01
  YS02001765YS02001762        0.41      0.41      0.45      0.01         0.01
  YS02001767YS02001765        0.37      0.37      0.41      0.01         0.01
  YS02001770YS02001767        0.37      0.37      0.37      0.42         0.30
  YS02001774YS02001770        0.35      0.35      0.43      0.01         0.01
  YS02001779YS02001774        0.17      0.17      0.43      0.01         0.01
  YS02001783YS02001784        0.41      0.43      0.41      0.55         0.41
  YS02001784YS02001785        0.31      0.41      0.31      0.74         0.31
  YS02001786YS02001788        0.01      0.31      0.01      0.63         0.01
  YS02001790YS02001791        0.01      0.01      0.01      0.40         0.01
  YS02001793JiankangQianchi        0.01      0.01      6.16      0.01         0.01
  YS02001882YS02001884        0.38      0.38      0.39      0.01         0.01
  YS02001884YS02001887        0.41      0.41      0.42      0.01         0.01
  YS02001887YS02001890        0.43      0.43      0.44      0.01         0.01
  YS02001890YS02001895        0.37      0.37      0.46      0.01         0.01
  YS02001895YS02001898        0.36      0.36      0.37      0.01         0.01
  YS02001898YS02001901        0.37      0.37      0.41      0.01         0.01
  YS02001901YS02001904        0.40      0.40      0.41      0.01         0.01
  YS02001904YS02001907        0.40      0.40      0.61      0.01         0.01
  YS02001907YS02006553        0.76      0.76      0.82      0.01         0.01
  YS02001910YS02001907        0.46      0.46      0.60      0.01         0.01
  YS02001915YS02001910        0.38      0.38      0.46      0.01         0.01
  YS02001918YS02001915        0.29      0.29      0.38      0.01         0.01
  YS02001920YS02001918        0.29      0.29      0.31      0.01         0.01
  YS02001923YS02001920        0.25      0.25      0.31      0.01         0.01
  YS02001926YS02001923        0.01      0.01      0.01      0.01         0.01
  YS02001929YS02001926        0.01      0.01      0.01      0.01         0.01
  YS02006553YS02006556        0.53      0.53      0.61      0.01         0.01
  YS02006556YS02006558        0.57      0.57      0.63      0.01         0.01
  YS02006558YS02006561        0.33      0.52      0.33      0.70         0.33
  YS02006561YS02001783        0.26      0.26      0.43      0.01         0.01
  YS02163301YS02001633        0.71      0.71      0.74      0.01         0.01
  YS02163601YS02164001        0.67      0.67      0.75      0.13         0.01
  YS02164001YS02001641        0.66      0.67      0.66      0.78         0.65
  
  
  ***************
  Pumping Summary
  ***************
  
  ---------------------------------------------------------------------------------------------------------
                                                  Min       Avg       Max     Total     Power    % Time Off
                        Percent   Number of      Flow      Flow      Flow    Volume     Usage    Pump Curve
  Pump                 Utilized   Start-Ups       LPS       LPS       LPS  10^6 ltr     Kw-hr    Low   High
  ---------------------------------------------------------------------------------------------------------
  CC-R1                   16.27          31      0.00    683.00    683.00     3.200     57.91    0.0   26.3
  CC-R2                   18.78          32      0.00    683.00    683.00     3.693     65.55    0.0   50.5
  CC-S1                   27.30          23      0.00    200.00    200.00     1.572      9.72    0.0    0.0
  CC-S2                   26.13          21      0.00    200.00    200.00     1.505      9.43    0.0    0.0
  JK-R1                    3.94          12      0.00   1000.00   1000.00     1.134     10.87    0.0    0.0
  JK-R2                    4.37          13      0.00   1000.00   1000.00     1.257     11.14    0.0    0.0
  JK-S                    13.78          46      0.00    300.00    300.00     1.191     20.87    0.0    0.0
  

  Analysis begun on:  Mon Dec 30 10:14:54 2024
  Analysis ended on:  Mon Dec 30 10:14:56 2024
  Total elapsed time: 00:00:02