
  EPA STORM WATER MANAGEMENT MODEL - VERSION 5.2 (Build 5.2.4)
  PYSWMM TOOLKIT API - VERSION v1.0 (2023-11-27)
  ------------------------------------------------------------

  WARNING 04: minimum elevation drop used for Conduit WS02004404WS02004405
  WARNING 03: negative offset ignored for Link YS02001904YS02001907
  
  ****************
  Analysis Options
  ****************
  Flow Units ............... LPS
  Process Models:
    Rainfall/Runoff ........ YES
    RDII ................... NO
    Snowmelt ............... NO
    Groundwater ............ NO
    Flow Routing ........... YES
    Ponding Allowed ........ NO
    Water Quality .......... NO
  Infiltration Method ...... HORTON
  Flow Routing Method ...... DYNWAVE
  Surcharge Method ......... EXTRAN
  Starting Date ............ 08/28/2015 08:00:00
  Ending Date .............. 08/28/2015 16:00:00
  Antecedent Dry Days ...... 8.0
  Report Time Step ......... 00:01:00
  Wet Time Step ............ 00:01:00
  Dry Time Step ............ 00:01:00
  Routing Time Step ........ 30.00 sec
  Variable Time Step ....... YES
  Maximum Trials ........... 8
  Number of Threads ........ 4
  Head Tolerance ........... 0.001500 m
  
  
  **************************        Volume         Depth
  Runoff Quantity Continuity     hectare-m            mm
  **************************     ---------       -------
  Total Precipitation ......         3.386       102.090
  Evaporation Loss .........         0.000         0.000
  Infiltration Loss ........         0.106         3.188
  Surface Runoff ...........         3.248        97.926
  Final Storage ............         0.033         0.997
  Continuity Error (%) .....        -0.021
  
  
  **************************        Volume        Volume
  Flow Routing Continuity        hectare-m      10^6 ltr
  **************************     ---------     ---------
  Dry Weather Inflow .......         0.025         0.251
  Wet Weather Inflow .......         3.248        32.484
  Groundwater Inflow .......         0.000         0.000
  RDII Inflow ..............         0.000         0.000
  External Inflow ..........         0.083         0.834
  External Outflow .........         1.981        19.812
  Flooding Loss ............         1.447        14.469
  Evaporation Loss .........         0.000         0.000
  Exfiltration Loss ........         0.000         0.000
  Initial Stored Volume ....         0.243         2.431
  Final Stored Volume ......         0.182         1.817
  Continuity Error (%) .....        -0.273
  
  
  *************************
  Highest Continuity Errors
  *************************
  Node YS02001884 (5.09%)
  Node YS02001583 (-3.43%)
  Node WS02006256 (-2.87%)
  
  
  ***************************
  Time-Step Critical Elements
  ***************************
  Link WS02006252WS02006251 (27.13%)
  Link WS02006238WS02006235 (23.31%)
  Link WS02004404WS02004405 (15.78%)
  Link YS02001791YS02001793 (10.01%)
  Link WS02006235WS02006234 (7.68%)
  
  
  ********************************
  Highest Flow Instability Indexes
  ********************************
  Link WS02006113WS02006111 (38)
  Link WS02006238WS02006235 (24)
  Link WS02006111WS02006112 (23)
  Link WS02006256WS02006235 (22)
  Link WS02006252WS02006251 (21)
  
  
  *********************************
  Most Frequent Nonconverging Nodes
  *********************************
  Node CC-1 (14.41%)
  Node CC-2 (14.41%)
  Node JK-1 (14.41%)
  Node JK-2 (14.41%)
  Node WSC (14.41%)
  
  
  *************************
  Routing Time Step Summary
  *************************
  Minimum Time Step           :     0.00 sec
  Average Time Step           :     2.53 sec
  Maximum Time Step           :     6.49 sec
  % of Time in Steady State   :     0.00
  Average Iterations per Step :     3.54
  % of Steps Not Converging   :    14.41
  Time Step Frequencies       :
     30.000 - 13.228 sec      :     0.00 %
     13.228 -  5.833 sec      :    11.74 %
      5.833 -  2.572 sec      :    25.96 %
      2.572 -  1.134 sec      :    28.93 %
      1.134 -  0.500 sec      :    33.37 %
  
  
  ***************************
  Subcatchment Runoff Summary
  ***************************
  
  ------------------------------------------------------------------------------------------------------------------------------
                            Total      Total      Total      Total     Imperv       Perv      Total       Total     Peak  Runoff
                           Precip      Runon       Evap      Infil     Runoff     Runoff     Runoff      Runoff   Runoff   Coeff
  Subcatchment                 mm         mm         mm         mm         mm         mm         mm    10^6 ltr      LPS
  ------------------------------------------------------------------------------------------------------------------------------
  sub60                    102.09       0.00       0.00       1.89      88.64      10.36      99.01        1.30   881.13   0.970
  sub61                    102.09       0.00       0.00       2.75      83.61      14.61      98.22        1.80  1226.87   0.962
  sub62                    102.09       0.00       0.00       1.26      92.64       6.91      99.55        2.73  1732.45   0.975
  sub63                    102.09       0.00       0.00       5.09      71.52      24.52      96.04        2.18  1413.80   0.941
  sub64                    102.09       0.00       0.00       2.57      85.57      12.74      98.32        2.36  1438.25   0.963
  sub65                    102.09       0.00       0.00       2.23      87.57      11.05      98.62        2.71  1617.96   0.966
  sub66                    102.09       0.00       0.00       6.36      71.41      23.25      94.66        4.41  2240.02   0.927
  sub67                    102.09       0.00       0.00       1.21      92.69       6.96      99.65        1.85  1307.20   0.976
  sub68                    102.09       0.00       0.00       2.28      86.62      12.02      98.64        2.71  1777.95   0.966
  sub69                    102.09       0.00       0.00       2.07      86.67      13.25      99.92        3.70  2152.83   0.979
  sub70                    102.09       0.00       0.00       6.96      67.21      27.75      94.97        2.74  1262.47   0.930
  sub71                    102.09       0.00       0.00       1.30      92.60       6.87      99.47        2.60  1554.10   0.974
  sub72                    102.09       0.00       0.00       1.15      93.54       5.99      99.53        1.37   767.15   0.975
  
  
  ******************
  Node Depth Summary
  ******************
  
  ---------------------------------------------------------------------------------
                                 Average  Maximum  Maximum  Time of Max    Reported
                                   Depth    Depth      HGL   Occurrence   Max Depth
  Node                 Type       Meters   Meters   Meters  days hr:min      Meters
  ---------------------------------------------------------------------------------
  WS02003060           JUNCTION     0.22     0.38     5.32     0  02:42        0.38
  WS02003066           JUNCTION     0.18     0.30     5.85     0  02:42        0.30
  WS02003067           JUNCTION     0.47     0.70     6.02     0  02:41        0.70
  WS02003069           JUNCTION     0.24     0.43     5.02     0  02:43        0.43
  WS02003072           JUNCTION     0.30     0.50     4.87     0  02:44        0.50
  WS02003073           JUNCTION     0.17     0.30     4.36     0  02:44        0.30
  WS02004401           JUNCTION     0.57     0.88     6.88     0  02:39        0.88
  WS02004402           JUNCTION     0.61     0.91     6.87     0  02:41        0.90
  WS02004403           JUNCTION     0.63     0.92     6.85     0  02:40        0.92
  WS02004404           JUNCTION     0.70     1.05     6.90     0  02:38        1.03
  WS02004405           JUNCTION     0.69     0.97     6.82     0  02:36        0.96
  WS02004406           JUNCTION     0.71     0.96     6.79     0  02:39        0.96
  WS02004407           JUNCTION     0.16     0.30     6.61     0  02:40        0.30
  WS02004409           JUNCTION     0.36     0.67     6.44     0  02:40        0.67
  WS02004410           JUNCTION     0.39     0.68     6.40     0  02:40        0.68
  WS02004411           JUNCTION     0.41     0.69     6.37     0  02:41        0.69
  WS02004412           JUNCTION     0.43     0.70     6.34     0  02:41        0.70
  WS02004413           JUNCTION     0.59     0.86     6.33     0  02:41        0.86
  WS02006109           JUNCTION     0.63     1.15     7.76     0  02:03        0.98
  WS02006110           JUNCTION     0.63     1.22     7.80     0  02:12        0.93
  WS02006111           JUNCTION     0.17     0.29     6.99     0  03:12        0.29
  WS02006112           JUNCTION     0.73     1.09     6.97     0  02:13        1.07
  WS02006113           JUNCTION     0.26     0.46     7.35     0  03:07        0.46
  WS02006115           JUNCTION     0.46     0.78     6.91     0  02:38        0.77
  WS02006116           JUNCTION     0.54     0.86     6.90     0  02:39        0.86
  WS02006228           JUNCTION     0.62     1.16     7.81     0  02:12        1.02
  WS02006229           JUNCTION     0.59     1.14     7.83     0  02:12        1.11
  WS02006230           JUNCTION     0.59     1.31     8.05     0  02:12        1.19
  WS02006231           JUNCTION     0.40     1.03     8.15     0  02:49        0.94
  WS02006232           JUNCTION     0.53     1.20     8.24     0  02:49        1.16
  WS02006234           JUNCTION     0.46     1.33     8.49     0  02:12        1.33
  WS02006235           JUNCTION     0.50     1.46     8.63     0  02:49        1.30
  WS02006238           JUNCTION     0.52     1.50     8.64     0  02:49        1.34
  WS02006239           JUNCTION     0.49     1.67     8.88     0  01:53        1.33
  WS02006240           JUNCTION     0.46     1.81     9.10     0  01:53        1.29
  WS02006242           JUNCTION     0.52     1.44     8.71     0  02:49        1.35
  WS02006243           JUNCTION     0.44     1.30     8.72     0  02:49        1.24
  WS02006245           JUNCTION     0.44     1.32     8.81     0  01:53        1.20
  WS02006247           JUNCTION     0.46     1.21     8.71     0  02:49        1.19
  WS02006248           JUNCTION     0.43     1.10     8.69     0  02:49        1.10
  WS02006249           JUNCTION     0.46     1.09     8.69     0  01:54        1.09
  WS02006251           JUNCTION     0.45     1.38     9.05     0  01:54        1.32
  WS02006252           JUNCTION     0.32     1.50     9.74     0  00:00        0.88
  WS02006256           JUNCTION     1.04     2.35     9.28     0  00:00        2.35
  WSF200               JUNCTION     0.15     0.29     5.52     0  02:42        0.29
  YS02001580           JUNCTION     0.17     1.05     9.59     0  01:53        1.05
  YS02001583           JUNCTION     0.20     1.07     9.57     0  01:53        1.07
  YS02001586           JUNCTION     0.32     1.13     9.30     0  01:53        1.13
  YS02001590           JUNCTION     0.45     1.38     9.24     0  02:16        1.38
  YS02001593           JUNCTION     0.37     1.30     9.16     0  01:53        1.30
  YS02001596           JUNCTION     0.51     1.67     9.09     0  02:38        1.67
  YS02001600           JUNCTION     0.61     1.87     9.00     0  02:16        1.87
  YS02001601           JUNCTION     0.82     2.06     8.90     0  01:51        2.06
  YS02001602           JUNCTION     0.71     1.87     8.77     0  01:57        1.87
  YS02001605           JUNCTION     0.66     1.78     8.68     0  02:01        1.78
  YS02001607           JUNCTION     0.62     1.68     8.53     0  02:16        1.68
  YS02001610           JUNCTION     0.66     1.68     8.48     0  01:58        1.68
  YS02001613           JUNCTION     0.62     1.67     8.51     0  02:10        1.66
  YS02001616           JUNCTION     0.55     1.61     8.52     0  02:09        1.61
  YS02001619           JUNCTION     0.53     1.61     8.54     0  02:09        1.61
  YS02001622           JUNCTION     0.51     1.60     8.50     0  02:16        1.59
  YS02001625           JUNCTION     0.77     1.78     8.38     0  01:58        1.78
  YS02001629           JUNCTION     0.67     1.85     8.40     0  02:00        1.85
  YS02001633           JUNCTION     0.74     2.08     8.53     0  02:10        2.08
  YS02001641           JUNCTION     0.71     1.97     8.41     0  02:16        1.95
  YS02001644           JUNCTION     0.70     1.92     8.35     0  02:03        1.92
  YS02001647           JUNCTION     0.47     1.78     8.39     0  02:10        1.78
  YS02001649           JUNCTION     0.54     2.04     8.43     0  02:10        2.04
  YS02001652           JUNCTION     0.41     1.94     8.54     0  02:13        1.92
  YS02001655           JUNCTION     0.32     1.80     8.65     0  02:13        1.78
  YS02001658           JUNCTION     0.24     1.63     8.77     0  02:13        1.61
  YS02001661           JUNCTION     0.24     1.48     8.89     0  02:13        1.46
  YS02001664           JUNCTION     0.10     1.07     8.99     0  02:13        1.05
  YS02001745           JUNCTION     0.13     1.06     8.58     0  02:11        1.04
  YS02001748           JUNCTION     0.23     1.46     8.54     0  02:11        1.43
  YS02001751           JUNCTION     0.28     2.04     8.92     0  02:02        1.59
  YS02001754           JUNCTION     0.37     1.84     8.45     0  02:02        1.82
  YS02001757           JUNCTION     0.56     2.13     8.39     0  02:10        2.13
  YS02001759           JUNCTION     0.50     2.16     8.52     0  02:10        2.16
  YS02001762           JUNCTION     0.49     2.10     8.50     0  02:16        2.09
  YS02001765           JUNCTION     0.46     2.05     8.50     0  02:16        2.03
  YS02001767           JUNCTION     0.45     1.99     8.48     0  02:16        1.98
  YS02001770           JUNCTION     0.47     1.95     8.44     0  02:01        1.95
  YS02001774           JUNCTION     0.53     2.05     8.47     0  02:01        2.05
  YS02001779           JUNCTION     0.35     1.68     8.37     0  01:59        1.68
  YS02001783           JUNCTION     0.36     1.27     7.41     0  02:16        1.26
  YS02001784           JUNCTION     0.36     1.16     7.23     0  02:16        1.15
  YS02001786           JUNCTION     0.30     0.91     6.94     0  02:16        0.88
  YS02001788           JUNCTION     0.22     0.63     6.61     0  02:13        0.63
  YS02001790           JUNCTION     0.26     0.73     6.37     0  02:08        0.73
  YS02001791           JUNCTION     0.16     0.44     5.91     0  02:13        0.44
  YS02001793           JUNCTION     0.09     0.30     5.13     0  02:16        0.28
  YS02001882           JUNCTION     0.44     1.83     8.55     0  02:16        1.73
  YS02001884           JUNCTION     0.54     1.90     8.52     0  02:16        1.84
  YS02001887           JUNCTION     0.61     1.91     8.44     0  02:16        1.90
  YS02001890           JUNCTION     0.64     1.81     8.32     0  01:59        1.81
  YS02001895           JUNCTION     0.41     1.57     8.32     0  02:10        1.57
  YS02001898           JUNCTION     0.42     1.57     8.31     0  02:10        1.57
  YS02001901           JUNCTION     0.53     1.69     8.30     0  02:10        1.68
  YS02001904           JUNCTION     0.51     1.65     8.28     0  02:10        1.64
  YS02001907           JUNCTION     0.83     1.96     8.25     0  01:59        1.96
  YS02001910           JUNCTION     0.64     2.03     8.53     0  02:16        2.03
  YS02001915           JUNCTION     0.46     2.00     8.72     0  02:10        2.00
  YS02001918           JUNCTION     0.27     1.80     8.86     0  02:00        1.72
  YS02001920           JUNCTION     0.35     1.93     8.94     0  02:00        1.86
  YS02001923           JUNCTION     0.21     1.73     8.99     0  02:00        1.60
  YS02001926           JUNCTION     0.24     1.57     9.01     0  02:00        1.45
  YS02001929           JUNCTION     0.15     1.43     9.12     0  02:00        1.23
  YS02006553           JUNCTION     0.83     1.99     8.28     0  02:12        1.99
  YS02006556           JUNCTION     0.80     2.00     8.31     0  02:10        2.00
  YS02006558           JUNCTION     0.85     2.11     8.38     0  02:10        2.11
  YS02006561           JUNCTION     0.23     0.95     7.61     0  02:16        0.93
  YS02163301           JUNCTION     0.69     1.93     8.45     0  02:14        1.93
  YS02163601           JUNCTION     0.77     2.06     8.46     0  02:16        2.04
  YS02164001           JUNCTION     0.70     1.98     8.44     0  02:16        1.95
  CC-1                 OUTFALL      0.00     0.00     0.00     0  00:00        0.00
  CC-2                 OUTFALL      0.00     0.00     0.00     0  00:00        0.00
  JK-1                 OUTFALL      0.00     0.00     0.00     0  00:00        0.00
  JK-2                 OUTFALL      0.00     0.00     0.00     0  00:00        0.00
  WSC                  OUTFALL      0.17     0.30     0.97     0  02:45        0.30
  CC-storage           STORAGE      0.89     1.91     7.41     0  02:43        1.91
  JK-storage           STORAGE      1.70     4.23     5.03     0  02:15        4.20
  
  
  *******************
  Node Inflow Summary
  *******************
  
  -------------------------------------------------------------------------------------------------
                                  Maximum  Maximum                  Lateral       Total        Flow
                                  Lateral    Total  Time of Max      Inflow      Inflow     Balance
                                   Inflow   Inflow   Occurrence      Volume      Volume       Error
  Node                 Type           LPS      LPS  days hr:min    10^6 ltr    10^6 ltr     Percent
  -------------------------------------------------------------------------------------------------
  WS02003060           JUNCTION     16.53   556.00     0  02:42       0.476        4.86       0.051
  WS02003066           JUNCTION      0.00   539.15     0  02:42           0        4.38       0.032
  WS02003067           JUNCTION      0.00   539.07     0  02:41           0        4.39       0.098
  WS02003069           JUNCTION      0.32   556.13     0  02:42     0.00922        4.86       0.085
  WS02003072           JUNCTION      0.00   555.83     0  02:43           0        4.86       0.146
  WS02003073           JUNCTION      1.82   557.50     0  02:44      0.0524        4.91       0.119
  WS02004401           JUNCTION      0.00   537.16     0  02:40           0        4.49       0.234
  WS02004402           JUNCTION      0.00   539.29     0  02:38           0        4.48       0.238
  WS02004403           JUNCTION      0.00   539.16     0  02:39           0        4.47       0.231
  WS02004404           JUNCTION      0.16   562.45     0  02:39     0.00467        4.46       0.154
  WS02004405           JUNCTION      0.04   609.66     0  02:40      0.0011        4.46       0.244
  WS02004406           JUNCTION      0.00   545.92     0  02:40           0        4.44       0.477
  WS02004407           JUNCTION      0.00   540.63     0  02:39           0        4.42       0.032
  WS02004409           JUNCTION      0.00   540.07     0  02:40           0        4.42       0.068
  WS02004410           JUNCTION      0.00   539.93     0  02:40           0        4.42       0.104
  WS02004411           JUNCTION      0.00   539.78     0  02:40           0        4.41       0.132
  WS02004412           JUNCTION      0.00   539.49     0  02:41           0        4.41       0.175
  WS02004413           JUNCTION      0.00   539.43     0  02:41           0         4.4       0.309
  WS02006109           JUNCTION      1.23   553.51     0  02:50      0.0354        4.54       0.190
  WS02006110           JUNCTION      0.00   554.40     0  02:03           0        4.53       0.156
  WS02006111           JUNCTION      0.00   562.02     0  03:08           0        4.52       0.020
  WS02006112           JUNCTION      0.00   542.45     0  02:18           0        4.52       0.393
  WS02006113           JUNCTION      0.00   567.47     0  02:03           0        4.52       0.045
  WS02006115           JUNCTION      0.00   554.31     0  02:52           0         4.5       0.154
  WS02006116           JUNCTION      0.00   538.16     0  02:27           0        4.49       0.136
  WS02006228           JUNCTION      0.00   552.58     0  02:50           0        4.51       0.096
  WS02006229           JUNCTION      0.00   553.16     0  02:50           0        4.51       0.126
  WS02006230           JUNCTION     10.28   585.88     0  02:49       0.296        4.52       0.123
  WS02006231           JUNCTION      0.00   582.06     0  02:49           0        4.22      -0.025
  WS02006232           JUNCTION      0.00   580.96     0  02:49           0        4.23       0.220
  WS02006234           JUNCTION      0.00   574.32     0  02:49           0        4.21      -0.373
  WS02006235           JUNCTION      0.00   564.75     0  02:49           0        4.32       0.377
  WS02006238           JUNCTION      0.00   424.47     0  02:40           0        3.37      -0.136
  WS02006239           JUNCTION      0.00   423.58     0  02:40           0         3.3      -0.108
  WS02006240           JUNCTION      0.00   419.98     0  02:10           0        3.26      -0.010
  WS02006242           JUNCTION      0.00   420.11     0  02:10           0        3.26       0.024
  WS02006243           JUNCTION      0.00   419.66     0  02:40           0        3.25      -0.130
  WS02006245           JUNCTION      0.00   420.25     0  02:40           0        3.27       0.436
  WS02006247           JUNCTION      0.00   420.44     0  02:40           0        3.27       0.013
  WS02006248           JUNCTION      0.00   422.27     0  02:40           0        3.26      -0.055
  WS02006249           JUNCTION      0.00   459.02     0  00:00           0        3.46       0.502
  WS02006251           JUNCTION      0.08   407.41     0  01:54     0.00222        3.46       0.052
  WS02006252           JUNCTION      0.00   400.00     0  00:00           0        3.44      -0.528
  WS02006256           JUNCTION      0.00   300.00     0  00:00           0        1.34      -2.785
  WSF200               JUNCTION      0.00   539.22     0  02:42           0        4.38       0.012
  YS02001580           JUNCTION      0.00    61.08     0  01:52           0     0.00412       0.432
  YS02001583           JUNCTION      0.00    99.68     0  01:52           0      0.0159      -3.319
  YS02001586           JUNCTION   1262.47  1262.47     0  02:15        2.74        2.76       0.030
  YS02001590           JUNCTION      0.00   318.03     0  02:28           0        1.72      -0.029
  YS02001593           JUNCTION      0.00   318.08     0  02:38           0        1.73      -0.006
  YS02001596           JUNCTION      0.00   318.03     0  02:09           0        1.73      -0.008
  YS02001600           JUNCTION      0.00   318.31     0  02:38           0        1.73       0.019
  YS02001601           JUNCTION   2152.83  2470.47     0  02:14         3.7        5.42       0.011
  YS02001602           JUNCTION      0.00   492.20     0  01:52           0        2.77       0.017
  YS02001605           JUNCTION      0.00   491.43     0  01:52           0        2.58       0.026
  YS02001607           JUNCTION      0.00   491.44     0  01:52           0        2.58       0.074
  YS02001610           JUNCTION      0.00   955.39     0  02:17           0        3.26       0.068
  YS02001613           JUNCTION      0.00   618.80     0  02:17           0        2.49       0.062
  YS02001616           JUNCTION      0.00   619.26     0  02:17           0        2.49       0.009
  YS02001619           JUNCTION   2240.02  2240.02     0  02:14        4.41        6.22      -0.003
  YS02001622           JUNCTION      0.00  1053.98     0  02:17           0        5.33      -0.005
  YS02001625           JUNCTION      0.00  1505.45     0  02:20           0        5.84       0.184
  YS02001629           JUNCTION      0.00   923.87     0  01:58           0        4.13      -0.001
  YS02001633           JUNCTION   1618.16  1618.16     0  02:14        2.72        6.18       0.057
  YS02001641           JUNCTION      0.00  1322.76     0  01:58           0         5.5       0.047
  YS02001644           JUNCTION   1438.29  2741.94     0  02:13        2.36           8       0.041
  YS02001647           JUNCTION      0.00  1685.02     0  01:59           0        6.45       0.003
  YS02001649           JUNCTION      0.00  1913.76     0  01:59           0        8.49      -0.000
  YS02001652           JUNCTION      0.00  1426.70     0  02:13           0        2.18      -0.052
  YS02001655           JUNCTION      0.15  1427.41     0  02:13     0.00443        2.18       0.018
  YS02001658           JUNCTION      0.00  1428.35     0  02:13           0        2.18      -0.010
  YS02001661           JUNCTION      0.00  1428.82     0  02:13           0        2.18       0.005
  YS02001664           JUNCTION   1413.80  1413.80     0  02:13        2.18        2.18      -0.008
  YS02001745           JUNCTION    881.13   881.13     0  02:13         1.3         1.3       0.103
  YS02001748           JUNCTION      0.04   887.08     0  02:13      0.0013         1.3      -0.163
  YS02001751           JUNCTION      0.01   886.40     0  02:13    0.000317        1.31       0.023
  YS02001754           JUNCTION      0.26   886.26     0  02:13     0.00749        1.32      -0.095
  YS02001757           JUNCTION      0.00  3150.57     0  02:05           0        13.4       0.023
  YS02001759           JUNCTION   1226.91  1374.88     0  02:12         1.8        3.71      -0.007
  YS02001762           JUNCTION      0.00   726.57     0  02:05           0        1.91      -0.004
  YS02001765           JUNCTION      0.00   726.35     0  02:05           0        1.91       0.002
  YS02001767           JUNCTION      0.54   726.48     0  02:05      0.0154        1.91       0.003
  YS02001770           JUNCTION   1732.60  1732.60     0  02:13        2.73        2.78      -0.021
  YS02001774           JUNCTION      0.00   852.03     0  02:16           0       0.711       0.163
  YS02001779           JUNCTION      0.01   851.76     0  02:16    0.000144       0.666      -0.078
  YS02001783           JUNCTION      0.00  1177.96     0  02:12           0        5.29       0.004
  YS02001784           JUNCTION      1.06  1179.43     0  02:13      0.0305        5.32       0.010
  YS02001786           JUNCTION      0.06  1179.87     0  02:12     0.00162        5.32       0.013
  YS02001788           JUNCTION      0.07  1180.25     0  02:12     0.00204        5.32       0.006
  YS02001790           JUNCTION      0.15  1190.68     0  02:13     0.00446        5.32       0.026
  YS02001791           JUNCTION      0.00  1300.10     0  02:08           0        5.32      -0.036
  YS02001793           JUNCTION      0.00  1256.38     0  02:14           0        5.32       0.004
  YS02001882           JUNCTION      0.00    51.27     0  02:16           0      0.0132       5.702
  YS02001884           JUNCTION      0.00    49.50     0  02:16           0      0.0497       5.359
  YS02001887           JUNCTION   1307.65  1307.65     0  02:13        1.87         1.9       0.241
  YS02001890           JUNCTION      0.00  1307.69     0  02:13           0        1.86       0.266
  YS02001895           JUNCTION      0.00   521.27     0  02:16           0         1.5       0.119
  YS02001898           JUNCTION      0.00   518.77     0  02:18           0         1.5      -0.008
  YS02001901           JUNCTION      0.00   519.12     0  02:13           0         1.5       0.230
  YS02001904           JUNCTION      0.00   518.71     0  02:14           0        1.51       0.188
  YS02001907           JUNCTION      0.00  3115.22     0  02:13           0        5.67       0.308
  YS02001910           JUNCTION      0.00  1993.18     0  02:14           0        3.99       0.175
  YS02001915           JUNCTION   1554.12  2324.02     0  02:14         2.6        4.08       0.037
  YS02001918           JUNCTION      0.00   770.45     0  02:13           0        1.49       0.013
  YS02001920           JUNCTION      2.87   770.25     0  02:13      0.0827        1.48       0.068
  YS02001923           JUNCTION      0.04   767.06     0  02:14     0.00109        1.38      -0.007
  YS02001926           JUNCTION      0.05   767.62     0  02:14      0.0015        1.37       0.015
  YS02001929           JUNCTION    767.15   767.15     0  02:14        1.37        1.37      -0.020
  YS02006553           JUNCTION      0.00   802.15     0  02:35           0        2.96       0.382
  YS02006556           JUNCTION      0.00   803.22     0  02:35           0        2.97       0.255
  YS02006558           JUNCTION   1778.83  1778.83     0  02:13        2.74         5.5       0.065
  YS02006561           JUNCTION      0.00  1178.40     0  02:12           0        5.29      -0.003
  YS02163301           JUNCTION      0.00   923.19     0  01:58           0        4.14       0.035
  YS02163601           JUNCTION      0.11  1323.61     0  01:58     0.00317         5.5       0.090
  YS02164001           JUNCTION      0.00  1323.27     0  01:58           0         5.5       0.039
  CC-1                 OUTFALL       0.00   683.00     0  00:00           0        5.77       0.000
  CC-2                 OUTFALL       0.00   683.00     0  00:00           0        5.03       0.000
  JK-1                 OUTFALL       0.00  1000.00     0  00:00           0        2.25       0.000
  JK-2                 OUTFALL       0.00  1000.00     0  00:00           0        1.86       0.000
  WSC                  OUTFALL       0.00   557.27     0  02:45           0         4.9       0.000
  CC-storage           STORAGE       0.00  3150.59     0  02:05           0        15.6      -0.197
  JK-storage           STORAGE       0.00  1255.43     0  02:14           0        5.47      -0.307
  
  
  **********************
  Node Surcharge Summary
  **********************
  
  Surcharging occurs when water rises above the top of the highest conduit.
  ---------------------------------------------------------------------
                                               Max. Height   Min. Depth
                                   Hours       Above Crown    Below Rim
  Node                 Type      Surcharged         Meters       Meters
  ---------------------------------------------------------------------
  WS02004404           JUNCTION        0.02          0.046        2.734
  WS02006109           JUNCTION        1.89          0.326        1.494
  WS02006110           JUNCTION        0.61          0.306        1.544
  WS02006112           JUNCTION        0.74          0.090        1.590
  WS02006228           JUNCTION        1.87          0.328        1.872
  WS02006229           JUNCTION        1.89          0.341        2.109
  WS02006230           JUNCTION        0.62          0.227        1.343
  WS02006231           JUNCTION        0.72          0.318        1.212
  WS02006232           JUNCTION        1.98          0.503        0.977
  WS02006234           JUNCTION        1.00          0.614        0.626
  WS02006235           JUNCTION        1.87          0.752        0.538
  WS02006238           JUNCTION        1.93          0.779        0.651
  WS02006239           JUNCTION        1.84          0.934        0.356
  WS02006240           JUNCTION        1.84          1.101        0.289
  WS02006242           JUNCTION        1.92          0.711        0.109
  WS02006243           JUNCTION        1.85          0.589        0.181
  WS02006245           JUNCTION        1.84          0.614        0.236
  WS02006247           JUNCTION        1.86          0.497        0.263
  WS02006248           JUNCTION        1.83          0.380        0.000
  WS02006249           JUNCTION        1.84          0.390        0.000
  WS02006251           JUNCTION        0.76          0.348        0.832
  WS02006252           JUNCTION        2.13          1.100        0.000
  WS02006256           JUNCTION        6.91          2.050        0.000
  YS02001580           JUNCTION        0.96          0.450        0.000
  YS02001583           JUNCTION        0.98          0.430        0.070
  YS02001586           JUNCTION        1.14          0.510        0.000
  YS02001590           JUNCTION        1.22          0.727        0.023
  YS02001593           JUNCTION        1.22          0.680        0.160
  YS02001596           JUNCTION        1.34          0.944        0.126
  YS02001600           JUNCTION        1.49          1.190        0.000
  YS02001601           JUNCTION        1.81          1.440        0.000
  YS02001602           JUNCTION        1.71          1.270        0.000
  YS02001605           JUNCTION        1.66          1.180        0.000
  YS02001607           JUNCTION        1.22          0.680        0.000
  YS02001610           JUNCTION        1.24          0.680        0.000
  YS02001613           JUNCTION        1.21          0.669        0.031
  YS02001616           JUNCTION        1.18          0.610        0.000
  YS02001619           JUNCTION        1.17          0.610        0.000
  YS02001622           JUNCTION        1.17          0.596        0.024
  YS02001625           JUNCTION        1.33          0.780        0.000
  YS02001629           JUNCTION        1.10          0.470        0.000
  YS02001633           JUNCTION        1.37          1.060        0.000
  YS02001641           JUNCTION        1.31          0.969        0.131
  YS02001644           JUNCTION        1.28          0.920        0.000
  YS02001647           JUNCTION        1.06          0.779        0.121
  YS02001649           JUNCTION        1.17          1.038        0.012
  YS02001652           JUNCTION        1.01          0.912        0.218
  YS02001655           JUNCTION        0.81          0.804        0.396
  YS02001658           JUNCTION        0.47          0.632        0.668
  YS02001661           JUNCTION        0.18          0.412        0.978
  YS02001664           JUNCTION        0.01          0.065        1.245
  YS02001745           JUNCTION        0.03          0.062        1.288
  YS02001748           JUNCTION        0.38          0.378        0.812
  YS02001751           JUNCTION        0.64          1.038        0.162
  YS02001754           JUNCTION        0.92          0.793        0.357
  YS02001757           JUNCTION        1.23          1.128        0.082
  YS02001759           JUNCTION        1.15          1.157        0.053
  YS02001762           JUNCTION        1.12          1.102        0.048
  YS02001765           JUNCTION        1.08          1.049        0.051
  YS02001767           JUNCTION        1.06          0.993        0.037
  YS02001770           JUNCTION        1.05          0.920        0.000
  YS02001774           JUNCTION        1.11          1.050        0.000
  YS02001779           JUNCTION        0.91          0.680        0.000
  YS02001783           JUNCTION        0.81          0.474        1.126
  YS02001784           JUNCTION        0.78          0.360        1.130
  YS02001786           JUNCTION        0.64          0.106        1.324
  YS02001882           JUNCTION        0.73          0.830        0.000
  YS02001884           JUNCTION        0.75          0.838        0.032
  YS02001887           JUNCTION        0.79          0.857        0.093
  YS02001890           JUNCTION        0.81          0.760        0.000
  YS02001895           JUNCTION        0.72          0.570        0.180
  YS02001898           JUNCTION        0.71          0.545        0.195
  YS02001901           JUNCTION        0.78          0.689        0.181
  YS02001904           JUNCTION        0.76          0.649        0.201
  YS02001907           JUNCTION        1.13          0.950        0.000
  YS02001910           JUNCTION        0.85          1.026        0.074
  YS02001915           JUNCTION        0.73          1.000        0.000
  YS02001918           JUNCTION        0.63          0.798        0.012
  YS02001920           JUNCTION        0.64          0.931        0.209
  YS02001923           JUNCTION        0.26          0.519        0.301
  YS02001926           JUNCTION        0.29          0.567        0.333
  YS02001929           JUNCTION        0.15          0.428        0.352
  YS02006553           JUNCTION        1.15          0.994        0.196
  YS02006556           JUNCTION        0.97          0.963        0.387
  YS02006558           JUNCTION        0.95          1.014        0.386
  YS02006561           JUNCTION        0.59          0.146        1.004
  YS02163301           JUNCTION        1.35          0.929        0.101
  YS02163601           JUNCTION        1.41          1.063        0.017
  YS02164001           JUNCTION        1.32          0.980        0.120
  
  
  *********************
  Node Flooding Summary
  *********************
  
  Flooding refers to all water that overflows a node, whether it ponds or not.
  --------------------------------------------------------------------------
                                                             Total   Maximum
                                 Maximum   Time of Max       Flood    Ponded
                        Hours       Rate    Occurrence      Volume     Depth
  Node                 Flooded       LPS   days hr:min    10^6 ltr    Meters
  --------------------------------------------------------------------------
  WS02006248              0.01      4.57      0  02:49       0.000     0.000
  WS02006249              0.74    112.51      0  01:54       0.180     0.000
  WS02006252              0.01    245.63      0  00:00       0.000     0.000
  WS02006256              1.24    293.19      0  00:00       0.404     0.000
  YS02001580              0.01     10.05      0  01:53       0.000     0.000
  YS02001586              0.78    944.97      0  02:15       1.018     0.000
  YS02001600              0.01      0.31      0  02:16       0.000     0.000
  YS02001601              1.05   2072.48      0  02:14       2.656     0.000
  YS02001602              0.90     62.01      0  02:24       0.188     0.000
  YS02001605              0.01      0.19      0  02:01       0.000     0.000
  YS02001607              0.01      0.48      0  02:16       0.000     0.000
  YS02001610              0.81    954.74      0  02:17       1.447     0.000
  YS02001616              0.07      1.85      0  02:17       0.000     0.000
  YS02001619              0.18    574.40      0  02:14       0.210     0.000
  YS02001625              0.78   1505.24      0  02:20       2.372     0.000
  YS02001629              0.26    418.39      0  02:13       0.166     0.000
  YS02001633              0.01      0.54      0  02:10       0.000     0.000
  YS02001644              0.39   2741.47      0  02:13       1.683     0.000
  YS02001770              0.13    764.58      0  02:13       0.191     0.000
  YS02001774              0.01     23.15      0  02:01       0.000     0.000
  YS02001779              0.35    851.47      0  02:16       0.647     0.000
  YS02001882              0.01     15.89      0  02:16       0.000     0.000
  YS02001890              0.31    789.88      0  02:13       0.353     0.000
  YS02001907              0.56   3114.82      0  02:13       2.885     0.000
  YS02001915              0.09    331.59      0  02:14       0.068     0.000
  
  
  **********************
  Storage Volume Summary
  **********************
  
  ------------------------------------------------------------------------------------------------
                         Average    Avg   Evap  Exfil     Maximum    Max    Time of Max    Maximum
                          Volume   Pcnt   Pcnt   Pcnt      Volume   Pcnt     Occurrence    Outflow
  Storage Unit           1000 m³   Full   Loss   Loss     1000 m³   Full    days hr:min        LPS
  ------------------------------------------------------------------------------------------------
  CC-storage               2.479   38.7    0.0    0.0       5.330   83.2       0  02:43    1783.53
  JK-storage               0.085   29.3    0.0    0.0       0.212   72.9       0  02:15    2300.00
  
  
  ***********************
  Outfall Loading Summary
  ***********************
  
  -----------------------------------------------------------
                         Flow       Avg       Max       Total
                         Freq      Flow      Flow      Volume
  Outfall Node           Pcnt       LPS       LPS    10^6 ltr
  -----------------------------------------------------------
  CC-1                  45.66    683.00    683.00       5.772
  CC-2                  39.55    683.00    683.00       5.034
  JK-1                  13.24   1000.00   1000.00       2.249
  JK-2                   9.62   1000.00   1000.00       1.857
  WSC                   99.95    228.21    557.27       4.899
  -----------------------------------------------------------
  System                41.60   3594.21   3923.27      19.812
  
  
  ********************
  Link Flow Summary
  ********************
  
  -----------------------------------------------------------------------------
                                 Maximum  Time of Max   Maximum    Max/    Max/
                                  |Flow|   Occurrence   |Veloc|    Full    Full
  Link                 Type          LPS  days hr:min     m/sec    Flow   Depth
  -----------------------------------------------------------------------------
  1                    CONDUIT    557.27     0  02:45      2.83    0.19    0.30
  WS02003060WS02003069 CONDUIT    555.81     0  02:42      1.64    0.22    0.34
  WS02003066WSF200     CONDUIT    539.22     0  02:42      2.85    0.09    0.22
  WS02003067WS02003066 CONDUIT    539.15     0  02:42      1.21    0.17    0.42
  WS02003069WS02003072 CONDUIT    555.83     0  02:43      1.37    0.27    0.39
  WS02003072WS02003073 CONDUIT    555.68     0  02:44      1.44    1.20    0.37
  WS02004401WS02004402 CONDUIT    539.29     0  02:38      0.98    0.65    0.89
  WS02004402WS02004403 CONDUIT    539.16     0  02:39      0.97    0.77    0.91
  WS02004403WS02004404 CONDUIT    562.29     0  02:39      0.92    0.41    0.96
  WS02004404WS02004405 CONDUIT    609.62     0  02:40      1.08    5.97    0.98
  WS02004405WS02004406 CONDUIT    545.92     0  02:40      0.99    1.08    0.96
  WS02004406WS02004407 CONDUIT    540.63     0  02:39      1.04    0.24    0.63
  WS02004407WS02004409 CONDUIT    540.07     0  02:40      1.46    0.19    0.48
  WS02004409WS02004410 CONDUIT    539.93     0  02:40      0.96    0.70    0.68
  WS02004410WS02004411 CONDUIT    539.78     0  02:40      0.94    0.74    0.69
  WS02004411WS02004412 CONDUIT    539.49     0  02:41      0.93    0.77    0.70
  WS02004412WS02004413 CONDUIT    539.43     0  02:41      0.82    0.36    0.78
  WS02004413WS02003067 CONDUIT    539.07     0  02:41      1.11    0.23    0.59
  WS02006109WS02006110 CONDUIT    554.40     0  02:03      1.10    1.07    1.00
  WS02006110WS02006113 CONDUIT    567.47     0  02:03      1.38    0.52    0.79
  WS02006111WS02006112 CONDUIT    542.45     0  02:18      1.81    0.26    0.67
  WS02006112WS02006115 CONDUIT    554.31     0  02:52      0.78    0.33    0.88
  WS02006113WS02006111 CONDUIT    562.02     0  03:08      2.47    0.67    0.46
  WS02006115WS02006116 CONDUIT    538.16     0  02:27      0.97    0.69    0.79
  WS02006116WS02004401 CONDUIT    537.16     0  02:40      0.98    0.74    0.87
  WS02006228WS02006109 CONDUIT    552.28     0  02:50      1.10    2.41    1.00
  WS02006229WS02006228 CONDUIT    552.58     0  02:50      1.14    1.83    1.00
  WS02006230WS02006229 CONDUIT    553.16     0  02:50      1.44   12.31    1.00
  WS02006231WS02006230 CONDUIT    575.60     0  02:49      1.57    8.73    1.00
  WS02006232WS02006231 CONDUIT    582.06     0  02:49      1.52    1.22    1.00
  WS02006234WS02006232 CONDUIT    580.96     0  02:49      1.51    1.18    1.00
  WS02006235WS02006234 CONDUIT    574.32     0  02:49      1.49    6.06    1.00
  WS02006238WS02006235 CONDUIT    425.14     0  02:40      1.45    0.95    1.00
  WS02006239WS02006238 CONDUIT    424.47     0  02:40      1.10    1.36    1.00
  WS02006240WS02006239 CONDUIT    423.58     0  02:40      1.24    1.33    1.00
  WS02006242WS02006240 CONDUIT    419.98     0  02:10      1.13    1.67    1.00
  WS02006243WS02006242 CONDUIT    420.11     0  02:10      1.40    0.90    1.00
  WS02006245WS02006243 CONDUIT    419.66     0  02:40      1.45    1.24    1.00
  WS02006247WS02006245 CONDUIT    420.25     0  02:40      1.43    3.33    1.00
  WS02006248WS02006247 CONDUIT    420.44     0  02:40      1.44    0.92    1.00
  WS02006249WS02006248 CONDUIT    422.27     0  02:40      1.36    2.31    1.00
  WS02006251WS02006249 CONDUIT    459.02     0  00:00      2.02    1.32    1.00
  WS02006252WS02006251 CONDUIT    407.33     0  01:54     24.61    1.50    1.00
  WS02006256WS02006235 CONDUIT    288.91     0  00:00      4.23    3.06    1.00
  WSF200WS02003060     CONDUIT    539.47     0  02:42      2.06    0.12    0.28
  YS02001580YS02001583 CONDUIT     61.08     0  01:52      0.48    0.24    1.00
  YS02001583YS02001586 CONDUIT     99.68     0  01:52      0.44    0.15    1.00
  YS02001586YS02001590 CONDUIT    318.03     0  02:28      1.24    0.56    1.00
  YS02001590YS02001593 CONDUIT    318.08     0  02:38      1.12    2.00    1.00
  YS02001593YS02001596 CONDUIT    318.03     0  02:09      1.73    0.50    1.00
  YS02001596YS02001600 CONDUIT    318.31     0  02:38      1.28    0.62    1.00
  YS02001600YS02001601 CONDUIT    318.41     0  02:38      1.13    0.55    1.00
  YS02001601YS02001602 CONDUIT    492.20     0  01:52      1.74    1.78    1.00
  YS02001602YS02001605 CONDUIT    491.43     0  01:52      1.74   10.40    1.00
  YS02001605YS02001607 CONDUIT    491.44     0  01:52      1.74    2.69    1.00
  YS02001607YS02001610 CONDUIT    495.88     0  01:51      0.63    0.47    1.00
  YS02001610YS02001613 CONDUIT    619.15     0  02:17      0.79    0.71    1.00
  YS02001613YS02001616 CONDUIT    618.80     0  02:17      0.79    0.53    1.00
  YS02001616YS02001619 CONDUIT    619.26     0  02:17      0.79    1.08    1.00
  YS02001619YS02001622 CONDUIT   1053.98     0  02:17      1.34    1.55    1.00
  YS02001622YS02001625 CONDUIT   1053.69     0  02:19      1.34    0.56    1.00
  YS02001625YS02001629 CONDUIT    923.87     0  01:58      1.18    0.44    1.00
  YS02001629YS02163301 CONDUIT    923.19     0  01:58      1.18    1.14    1.00
  YS02001633YS02163601 CONDUIT   1323.50     0  01:58      1.69    1.39    1.00
  YS02001641YS02001644 CONDUIT   1322.95     0  01:58      1.68    4.28    1.00
  YS02001644YS02001647 CONDUIT   1685.02     0  01:59      2.17    0.99    1.00
  YS02001647YS02001649 CONDUIT   1706.46     0  01:58      2.28    0.90    1.00
  YS02001649YS02001757 CONDUIT   1911.30     0  01:59      2.45    1.16    1.00
  YS02001652YS02001649 CONDUIT   1427.09     0  02:13      1.82    0.71    1.00
  YS02001655YS02001652 CONDUIT   1426.70     0  02:13      1.82    0.69    1.00
  YS02001658YS02001655 CONDUIT   1427.26     0  02:13      1.82    0.61    1.00
  YS02001661YS02001658 CONDUIT   1428.35     0  02:13      2.20    0.56    1.00
  YS02001664YS02001661 CONDUIT   1428.82     0  02:13      2.15    0.45    1.00
  YS02001745YS02001748 CONDUIT    887.04     0  02:13      2.05    0.34    1.00
  YS02001748YS02001751 CONDUIT    886.39     0  02:13      1.59    0.45    1.00
  YS02001751YS02001754 CONDUIT    886.00     0  02:13      1.35    0.43    1.00
  YS02001754YS02001757 CONDUIT    885.90     0  02:13      1.13    0.36    1.00
  YS02001757CaochengTiaoxuchi CONDUIT   3150.59     0  02:05      4.01    1.36    1.00
  YS02001759YS02001757 CONDUIT   1374.28     0  02:12      1.75    0.98    1.00
  YS02001762YS02001759 CONDUIT    728.08     0  02:05      0.93    0.84    1.00
  YS02001765YS02001762 CONDUIT    726.57     0  02:05      0.93    0.68    1.00
  YS02001767YS02001765 CONDUIT    726.35     0  02:05      0.92    0.91    1.00
  YS02001770YS02001767 CONDUIT    725.94     0  02:05      0.92    2.88    1.00
  YS02001774YS02001770 CONDUIT    852.03     0  02:16      1.08    0.54    1.00
  YS02001779YS02001774 CONDUIT    851.76     0  02:16      1.08    0.43    1.00
  YS02001783YS02001784 CONDUIT   1178.37     0  02:13      2.34    1.62    1.00
  YS02001784YS02001785 CONDUIT   1179.81     0  02:12      2.35    2.75    1.00
  YS02001786YS02001788 CONDUIT   1180.18     0  02:12      2.51    2.27    0.89
  YS02001788YS02001790 CONDUIT   1190.52     0  02:13      2.73    0.88    0.85
  YS02001790YS02001791 CONDUIT   1300.10     0  02:08      3.44    1.41    0.71
  YS02001791YS02001793 CONDUIT   1256.38     0  02:14      6.77    0.54    0.45
  YS02001793JiankangQianchi CONDUIT   1255.43     0  02:14      2.50    0.10    0.65
  YS02001882YS02001884 CONDUIT     51.27     0  02:16      0.17    0.06    1.00
  YS02001884YS02001887 CONDUIT     49.50     0  02:16      0.13    0.07    1.00
  YS02001887YS02001890 CONDUIT   1307.69     0  02:13      1.66    2.24    1.00
  YS02001890YS02001895 CONDUIT    521.27     0  02:16      0.66    0.24    1.00
  YS02001895YS02001898 CONDUIT    518.77     0  02:18      0.66    0.90    1.00
  YS02001898YS02001901 CONDUIT    519.12     0  02:13      0.66    0.33    1.00
  YS02001901YS02001904 CONDUIT    518.71     0  02:14      0.66    0.80    1.00
  YS02001904YS02001907 CONDUIT    520.04     0  02:18      0.66    0.18    1.00
  YS02001907YS02006553 CONDUIT    802.15     0  02:35      0.89    0.94    1.00
  YS02001910YS02001907 CONDUIT   1993.02     0  02:15      2.54    1.12    1.00
  YS02001915YS02001910 CONDUIT   1993.18     0  02:14      2.54    0.99    1.00
  YS02001918YS02001915 CONDUIT    770.39     0  02:13      0.98    0.42    1.00
  YS02001920YS02001918 CONDUIT    770.45     0  02:13      0.98    0.75    1.00
  YS02001923YS02001920 CONDUIT    767.38     0  02:13      0.98    0.34    1.00
  YS02001926YS02001923 CONDUIT    767.02     0  02:14      0.98    1.10    1.00
  YS02001929YS02001926 CONDUIT    767.57     0  02:14      1.06    0.36    1.00
  YS02006553YS02006556 CONDUIT    803.22     0  02:35      1.02    0.69    1.00
  YS02006556YS02006558 CONDUIT    805.45     0  02:35      1.03    0.64    1.00
  YS02006558YS02006561 CONDUIT   1178.40     0  02:12      4.17    2.60    1.00
  YS02006561YS02001783 CONDUIT   1177.96     0  02:12      2.34    0.61    1.00
  YS02163301YS02001633 CONDUIT    923.37     0  01:58      1.18    0.87    1.00
  YS02163601YS02164001 CONDUIT   1323.27     0  01:58      1.68    1.17    1.00
  YS02164001YS02001641 CONDUIT   1322.76     0  01:58      1.68    1.81    1.00
  CC-R1                PUMP       683.00     0  00:00              1.00
  CC-R2                PUMP       683.00     0  00:00              1.00
  CC-S1                PUMP       200.00     0  00:00              1.00
  CC-S2                PUMP       200.00     0  00:00              1.00
  JK-R1                PUMP      1000.00     0  00:00              1.00
  JK-R2                PUMP      1000.00     0  00:00              1.00
  JK-S                 PUMP       300.00     0  00:00              1.00
  
  
  ***************************
  Flow Classification Summary
  ***************************
  
  -------------------------------------------------------------------------------------
                      Adjusted    ---------- Fraction of Time in Flow Class ---------- 
                       /Actual         Up    Down  Sub   Sup   Up    Down  Norm  Inlet 
  Conduit               Length    Dry  Dry   Dry   Crit  Crit  Crit  Crit  Ltd   Ctrl  
  -------------------------------------------------------------------------------------
  1                       1.00   0.00  0.00  0.00  0.00  1.00  0.00  0.00  0.41  0.00
  WS02003060WS02003069    1.00   0.00  0.00  0.00  0.98  0.02  0.00  0.00  0.68  0.00
  WS02003066WSF200        1.00   0.12  0.00  0.00  0.00  0.88  0.00  0.00  0.78  0.00
  WS02003067WS02003066    1.00   0.10  0.02  0.00  0.88  0.00  0.00  0.00  0.00  0.00
  WS02003069WS02003072    1.00   0.00  0.00  0.00  0.99  0.01  0.00  0.00  0.73  0.00
  WS02003072WS02003073    1.00   0.00  0.00  0.00  0.00  0.00  0.00  1.00  0.00  0.00
  WS02004401WS02004402    1.00   0.02  0.00  0.00  0.98  0.00  0.00  0.00  0.00  0.00
  WS02004402WS02004403    1.00   0.02  0.00  0.00  0.97  0.00  0.00  0.00  0.00  0.00
  WS02004403WS02004404    1.00   0.00  0.03  0.00  0.97  0.00  0.00  0.00  0.00  0.00
  WS02004404WS02004405    1.00   0.00  0.00  0.00  1.00  0.00  0.00  0.00  0.01  0.00
  WS02004405WS02004406    1.00   0.00  0.00  0.00  1.00  0.00  0.00  0.00  0.00  0.00
  WS02004406WS02004407    1.00   0.00  0.05  0.00  0.95  0.00  0.00  0.00  0.00  0.00
  WS02004407WS02004409    1.00   0.05  0.00  0.00  0.94  0.01  0.00  0.00  0.95  0.00
  WS02004409WS02004410    1.00   0.05  0.00  0.00  0.95  0.00  0.00  0.00  0.03  0.00
  WS02004410WS02004411    1.00   0.05  0.00  0.00  0.95  0.00  0.00  0.00  0.01  0.00
  WS02004411WS02004412    1.00   0.05  0.00  0.00  0.95  0.00  0.00  0.00  0.00  0.00
  WS02004412WS02004413    1.00   0.05  0.00  0.00  0.94  0.00  0.00  0.00  0.01  0.00
  WS02004413WS02003067    1.00   0.06  0.04  0.00  0.00  0.00  0.90  0.00  0.00  0.00
  WS02006109WS02006110    1.00   0.00  0.01  0.00  0.98  0.00  0.01  0.00  0.00  0.00
  WS02006110WS02006113    1.00   0.01  0.01  0.00  0.98  0.00  0.00  0.00  0.00  0.00
  WS02006111WS02006112    1.00   0.02  0.00  0.00  0.98  0.00  0.00  0.00  0.98  0.00
  WS02006112WS02006115    1.00   0.02  0.00  0.00  0.97  0.00  0.00  0.00  0.00  0.00
  WS02006113WS02006111    1.00   0.02  0.00  0.00  0.00  0.98  0.00  0.00  0.11  0.00
  WS02006115WS02006116    1.00   0.02  0.00  0.00  0.97  0.00  0.00  0.01  0.00  0.00
  WS02006116WS02004401    1.00   0.02  0.00  0.00  0.98  0.00  0.00  0.00  0.00  0.00
  WS02006228WS02006109    1.00   0.00  0.00  0.00  1.00  0.00  0.00  0.00  0.00  0.00
  WS02006229WS02006228    1.00   0.00  0.00  0.00  0.99  0.00  0.00  0.01  0.00  0.00
  WS02006230WS02006229    1.00   0.00  0.00  0.00  0.99  0.00  0.00  0.01  0.04  0.00
  WS02006231WS02006230    1.00   0.00  0.00  0.00  0.27  0.00  0.73  0.00  0.00  0.00
  WS02006232WS02006231    1.00   0.00  0.00  0.00  0.99  0.00  0.01  0.00  0.00  0.00
  WS02006234WS02006232    1.00   0.00  0.00  0.00  1.00  0.00  0.00  0.00  0.04  0.00
  WS02006235WS02006234    1.00   0.00  0.00  0.00  0.91  0.00  0.09  0.00  0.00  0.00
  WS02006238WS02006235    1.00   0.00  0.00  0.00  1.00  0.00  0.00  0.00  0.00  0.00
  WS02006239WS02006238    1.00   0.00  0.00  0.00  1.00  0.00  0.00  0.00  0.14  0.00
  WS02006240WS02006239    1.00   0.00  0.00  0.00  0.70  0.00  0.00  0.30  0.04  0.00
  WS02006242WS02006240    1.00   0.00  0.00  0.00  0.99  0.00  0.01  0.00  0.00  0.00
  WS02006243WS02006242    1.00   0.00  0.00  0.00  0.99  0.00  0.00  0.01  0.61  0.00
  WS02006245WS02006243    1.00   0.00  0.00  0.00  0.75  0.00  0.00  0.25  0.01  0.00
  WS02006247WS02006245    1.00   0.00  0.00  0.00  0.96  0.00  0.00  0.04  0.00  0.00
  WS02006248WS02006247    1.00   0.00  0.00  0.00  0.98  0.00  0.00  0.01  0.52  0.00
  WS02006249WS02006248    1.00   0.00  0.00  0.00  0.42  0.00  0.58  0.00  0.00  0.00
  WS02006251WS02006249    1.00   0.00  0.00  0.00  0.99  0.01  0.00  0.00  0.58  0.00
  WS02006252WS02006251    1.00   0.00  0.56  0.00  0.10  0.00  0.35  0.00  0.00  0.00
  WS02006256WS02006235    1.00   0.00  0.00  0.00  0.98  0.02  0.00  0.00  0.01  0.00
  WSF200WS02003060        1.00   0.00  0.12  0.00  0.38  0.50  0.00  0.00  0.57  0.00
  YS02001580YS02001583    1.00   0.23  0.53  0.00  0.24  0.00  0.00  0.00  0.62  0.00
  YS02001583YS02001586    1.00   0.40  0.30  0.00  0.30  0.00  0.00  0.00  0.62  0.00
  YS02001586YS02001590    1.00   0.13  0.00  0.00  0.47  0.04  0.00  0.37  0.35  0.00
  YS02001590YS02001593    1.00   0.13  0.01  0.00  0.17  0.00  0.70  0.00  0.00  0.00
  YS02001593YS02001596    1.00   0.13  0.00  0.00  0.19  0.01  0.00  0.67  0.02  0.00
  YS02001596YS02001600    1.00   0.13  0.00  0.00  0.24  0.01  0.00  0.61  0.04  0.00
  YS02001600YS02001601    1.00   0.13  0.01  0.00  0.86  0.00  0.00  0.00  0.57  0.00
  YS02001601YS02001602    1.00   0.13  0.01  0.00  0.87  0.00  0.00  0.00  0.00  0.00
  YS02001602YS02001605    1.00   0.13  0.00  0.00  0.87  0.00  0.00  0.00  0.00  0.00
  YS02001605YS02001607    1.00   0.13  0.00  0.00  0.87  0.00  0.00  0.00  0.00  0.00
  YS02001607YS02001610    1.00   0.13  0.00  0.00  0.86  0.00  0.00  0.00  0.01  0.00
  YS02001610YS02001613    1.00   0.13  0.00  0.00  0.87  0.00  0.00  0.00  0.00  0.00
  YS02001613YS02001616    1.00   0.13  0.00  0.00  0.87  0.00  0.00  0.00  0.00  0.00
  YS02001616YS02001619    1.00   0.13  0.00  0.00  0.87  0.00  0.00  0.00  0.00  0.00
  YS02001619YS02001622    1.00   0.13  0.00  0.00  0.87  0.00  0.00  0.00  0.26  0.00
  YS02001622YS02001625    1.00   0.13  0.00  0.00  0.87  0.00  0.00  0.00  0.03  0.00
  YS02001625YS02001629    1.00   0.13  0.04  0.00  0.22  0.00  0.62  0.00  0.00  0.00
  YS02001629YS02163301    1.00   0.14  0.01  0.00  0.85  0.00  0.00  0.00  0.00  0.00
  YS02001633YS02163601    1.00   0.00  0.01  0.00  0.99  0.00  0.00  0.00  0.14  0.00
  YS02001641YS02001644    1.00   0.00  0.01  0.00  0.99  0.00  0.00  0.00  0.00  0.00
  YS02001644YS02001647    1.00   0.00  0.16  0.00  0.84  0.00  0.00  0.00  0.00  0.00
  YS02001647YS02001649    1.00   0.00  0.16  0.00  0.59  0.25  0.00  0.00  0.55  0.00
  YS02001649YS02001757    1.00   0.00  0.00  0.00  0.73  0.27  0.00  0.00  0.39  0.00
  YS02001652YS02001649    1.00   0.00  0.00  0.00  0.97  0.03  0.00  0.00  0.70  0.00
  YS02001655YS02001652    1.00   0.00  0.00  0.00  0.24  0.01  0.00  0.75  0.05  0.00
  YS02001658YS02001655    1.00   0.00  0.14  0.00  0.71  0.15  0.00  0.00  0.63  0.00
  YS02001661YS02001658    1.00   0.14  0.00  0.00  0.55  0.32  0.00  0.00  0.63  0.00
  YS02001664YS02001661    1.00   0.13  0.00  0.00  0.79  0.09  0.00  0.00  0.82  0.00
  YS02001745YS02001748    1.00   0.00  0.00  0.00  0.15  0.00  0.00  0.84  0.04  0.00
  YS02001748YS02001751    1.00   0.00  0.00  0.00  0.87  0.13  0.00  0.00  0.72  0.00
  YS02001751YS02001754    1.00   0.00  0.00  0.00  0.22  0.01  0.00  0.77  0.03  0.00
  YS02001754YS02001757    1.00   0.00  0.00  0.00  1.00  0.00  0.00  0.00  0.76  0.00
  YS02001757CaochengTiaoxuchi    1.00   0.00  0.00  0.00  0.97  0.03  0.00  0.00  0.71  0.00
  YS02001759YS02001757    1.00   0.00  0.00  0.00  0.98  0.02  0.00  0.00  0.58  0.00
  YS02001762YS02001759    1.00   0.00  0.00  0.00  1.00  0.00  0.00  0.00  0.02  0.00
  YS02001765YS02001762    1.00   0.00  0.00  0.00  1.00  0.00  0.00  0.00  0.66  0.00
  YS02001767YS02001765    1.00   0.00  0.00  0.00  1.00  0.00  0.00  0.00  0.00  0.00
  YS02001770YS02001767    1.00   0.00  0.00  0.00  1.00  0.00  0.00  0.00  0.00  0.00
  YS02001774YS02001770    1.00   0.00  0.13  0.00  0.71  0.00  0.16  0.00  0.02  0.00
  YS02001779YS02001774    1.00   0.00  0.00  0.00  1.00  0.00  0.00  0.00  0.72  0.00
  YS02001783YS02001784    1.00   0.00  0.16  0.00  0.84  0.00  0.00  0.00  0.54  0.00
  YS02001784YS02001785    1.00   0.00  0.00  0.00  1.00  0.00  0.00  0.00  0.15  0.00
  YS02001786YS02001788    1.00   0.00  0.00  0.00  0.79  0.21  0.00  0.00  0.00  0.00
  YS02001788YS02001790    1.00   0.00  0.00  0.00  0.22  0.78  0.00  0.00  0.77  0.00
  YS02001790YS02001791    1.00   0.00  0.00  0.00  0.01  0.99  0.00  0.00  0.15  0.00
  YS02001791YS02001793    1.00   0.00  0.00  0.00  0.00  1.00  0.00  0.00  0.01  0.00
  YS02001793JiankangQianchi    1.00   0.00  0.00  0.00  0.97  0.03  0.00  0.00  0.93  0.00
  YS02001882YS02001884    1.00   0.14  0.01  0.00  0.85  0.00  0.00  0.00  0.00  0.00
  YS02001884YS02001887    1.00   0.06  0.05  0.00  0.89  0.00  0.00  0.00  0.00  0.00
  YS02001887YS02001890    1.00   0.00  0.00  0.00  0.97  0.00  0.03  0.00  0.00  0.00
  YS02001890YS02001895    1.00   0.00  0.15  0.00  0.85  0.00  0.00  0.00  0.00  0.00
  YS02001895YS02001898    1.00   0.15  0.00  0.00  0.83  0.00  0.01  0.00  0.00  0.00
  YS02001898YS02001901    1.00   0.15  0.00  0.00  0.85  0.00  0.00  0.00  0.01  0.00
  YS02001901YS02001904    1.00   0.15  0.00  0.00  0.85  0.00  0.00  0.00  0.00  0.00
  YS02001904YS02001907    1.00   0.00  0.15  0.00  0.85  0.00  0.00  0.00  0.00  0.00
  YS02001907YS02006553    1.00   0.00  0.02  0.00  0.98  0.00  0.00  0.00  0.00  0.00
  YS02001910YS02001907    1.00   0.00  0.00  0.00  0.97  0.00  0.00  0.03  0.11  0.00
  YS02001915YS02001910    1.00   0.00  0.00  0.00  0.97  0.03  0.00  0.00  0.13  0.00
  YS02001918YS02001915    1.00   0.00  0.01  0.00  0.98  0.02  0.00  0.00  0.70  0.00
  YS02001920YS02001918    1.00   0.00  0.01  0.00  0.99  0.00  0.00  0.00  0.00  0.00
  YS02001923YS02001920    1.00   0.00  0.00  0.00  1.00  0.00  0.00  0.00  0.89  0.00
  YS02001926YS02001923    1.00   0.00  0.07  0.00  0.09  0.00  0.83  0.00  0.00  0.00
  YS02001929YS02001926    1.00   0.00  0.13  0.00  0.87  0.00  0.00  0.00  0.79  0.00
  YS02006553YS02006556    1.00   0.01  0.00  0.00  0.99  0.00  0.00  0.00  0.03  0.00
  YS02006556YS02006558    1.00   0.00  0.00  0.00  1.00  0.00  0.00  0.00  0.00  0.00
  YS02006558YS02006561    1.00   0.16  0.00  0.00  0.09  0.75  0.00  0.00  0.16  0.00
  YS02006561YS02001783    1.00   0.16  0.00  0.00  0.13  0.71  0.00  0.00  0.65  0.00
  YS02163301YS02001633    1.00   0.00  0.14  0.00  0.86  0.00  0.00  0.00  0.00  0.00
  YS02163601YS02164001    1.00   0.00  0.08  0.00  0.92  0.00  0.00  0.00  0.00  0.00
  YS02164001YS02001641    1.00   0.01  0.07  0.00  0.92  0.00  0.00  0.00  0.05  0.00
  
  
  *************************
  Conduit Surcharge Summary
  *************************
  
  ----------------------------------------------------------------------------
                                                           Hours        Hours 
                         --------- Hours Full --------   Above Full   Capacity
  Conduit                Both Ends  Upstream  Dnstream   Normal Flow   Limited
  ----------------------------------------------------------------------------
  WS02003072WS02003073        0.01      0.01      0.01      1.00         0.01
  WS02004403WS02004404        0.01      0.01      0.01      0.01         0.01
  WS02004404WS02004405        0.01      0.01      0.01      2.65         0.01
  WS02004405WS02004406        0.01      0.01      0.01      0.55         0.01
  WS02006109WS02006110        0.61      0.61      1.98      0.70         0.01
  WS02006110WS02006113        0.01      0.01      1.95      0.01         0.01
  WS02006111WS02006112        0.01      0.01      2.33      0.01         0.01
  WS02006112WS02006115        0.01      0.01      0.74      0.01         0.01
  WS02006228WS02006109        1.89      1.98      1.89      2.47         1.88
  WS02006229WS02006228        1.87      1.89      1.87      2.25         1.86
  WS02006230WS02006229        2.10      2.21      2.10      3.38         2.10
  WS02006231WS02006230        0.62      0.62      0.76      2.93         0.01
  WS02006232WS02006231        0.71      0.71      1.98      0.77         0.01
  WS02006234WS02006232        1.84      1.84      1.98      0.76         0.75
  WS02006235WS02006234        0.99      0.99      1.87      2.78         0.02
  WS02006238WS02006235        1.90      1.90      1.98      0.01         0.01
  WS02006239WS02006238        1.90      1.92      1.93      2.02         1.72
  WS02006240WS02006239        1.83      1.86      1.84      2.01         1.58
  WS02006242WS02006240        1.84      1.84      1.98      2.16         0.01
  WS02006243WS02006242        1.86      1.86      1.92      0.01         0.03
  WS02006245WS02006243        1.84      1.85      1.85      1.32         1.29
  WS02006247WS02006245        1.84      1.86      1.84      2.55         1.83
  WS02006248WS02006247        1.85      1.85      1.86      0.01         0.04
  WS02006249WS02006248        1.83      1.83      1.84      2.50         0.01
  WS02006251WS02006249        1.84      1.84      1.84      2.02         1.77
  WS02006252WS02006251        2.09      2.09      2.13      2.10         0.01
  WS02006256WS02006235        2.80      2.84      6.79      1.29         0.01
  YS02001580YS02001583        0.96      0.96      1.05      0.01         0.01
  YS02001583YS02001586        0.97      0.97      1.14      0.01         0.01
  YS02001586YS02001590        1.15      1.15      1.22      0.01         0.01
  YS02001590YS02001593        1.22      1.22      1.25      1.22         0.01
  YS02001593YS02001596        1.24      1.24      1.34      0.01         0.01
  YS02001596YS02001600        1.40      1.40      1.49      0.01         0.01
  YS02001600YS02001601        1.55      1.55      1.81      0.01         0.01
  YS02001601YS02001602        1.71      1.71      1.84      1.49         0.01
  YS02001602YS02001605        1.67      1.67      1.71      2.57         0.01
  YS02001605YS02001607        1.62      1.67      1.63      1.74         1.61
  YS02001607YS02001610        1.22      1.22      1.24      0.01         0.01
  YS02001610YS02001613        1.21      1.21      1.24      0.01         0.01
  YS02001613YS02001616        1.18      1.18      1.21      0.01         0.01
  YS02001616YS02001619        1.17      1.17      1.18      0.17         0.14
  YS02001619YS02001622        1.16      1.17      1.17      1.19         1.09
  YS02001622YS02001625        1.17      1.17      1.33      0.01         0.01
  YS02001625YS02001629        1.10      1.10      1.33      0.01         0.01
  YS02001629YS02163301        1.33      1.33      1.35      0.17         0.16
  YS02001633YS02163601        1.37      1.37      1.41      0.27         0.29
  YS02001641YS02001644        1.28      1.31      1.28      1.88         1.26
  YS02001644YS02001647        1.06      1.06      1.28      0.01         0.01
  YS02001647YS02001649        1.06      1.06      1.17      0.01         0.01
  YS02001649YS02001757        1.17      1.17      1.23      0.17         0.09
  YS02001652YS02001649        1.03      1.03      1.17      0.01         0.01
  YS02001655YS02001652        0.81      0.81      1.01      0.01         0.01
  YS02001658YS02001655        0.47      0.47      0.81      0.01         0.01
  YS02001661YS02001658        0.18      0.18      0.47      0.01         0.01
  YS02001664YS02001661        0.01      0.01      0.23      0.01         0.01
  YS02001745YS02001748        0.03      0.03      0.37      0.01         0.01
  YS02001748YS02001751        0.42      0.42      0.64      0.01         0.01
  YS02001751YS02001754        0.64      0.64      0.92      0.01         0.01
  YS02001754YS02001757        0.97      0.97      1.23      0.01         0.01
  YS02001757CaochengTiaoxuchi        1.22      1.23      1.76      0.57         0.49
  YS02001759YS02001757        1.15      1.15      1.23      0.01         0.01
  YS02001762YS02001759        1.12      1.12      1.15      0.01         0.02
  YS02001765YS02001762        1.08      1.08      1.12      0.01         0.01
  YS02001767YS02001765        1.06      1.06      1.08      0.01         0.02
  YS02001770YS02001767        1.06      1.06      1.06      0.76         0.62
  YS02001774YS02001770        1.05      1.05      1.11      0.01         0.01
  YS02001779YS02001774        0.91      0.91      1.11      0.01         0.01
  YS02001783YS02001784        0.78      0.81      0.78      1.02         0.78
  YS02001784YS02001785        0.64      0.78      0.64      1.36         0.64
  YS02001786YS02001788        0.01      0.64      0.01      1.18         0.01
  YS02001790YS02001791        0.01      0.01      0.01      0.76         0.01
  YS02001793JiankangQianchi        0.01      0.01      6.25      0.01         0.01
  YS02001882YS02001884        0.73      0.73      0.75      0.01         0.01
  YS02001884YS02001887        0.78      0.78      0.79      0.01         0.01
  YS02001887YS02001890        0.81      0.81      0.83      0.24         0.01
  YS02001890YS02001895        0.72      0.72      0.85      0.01         0.01
  YS02001895YS02001898        0.71      0.71      0.72      0.01         0.01
  YS02001898YS02001901        0.72      0.72      0.78      0.01         0.01
  YS02001901YS02001904        0.76      0.76      0.78      0.01         0.01
  YS02001904YS02001907        0.76      0.76      1.15      0.01         0.01
  YS02001907YS02006553        1.37      1.37      1.44      0.01         0.01
  YS02001910YS02001907        0.85      0.85      1.13      0.13         0.13
  YS02001915YS02001910        0.73      0.73      0.85      0.01         0.01
  YS02001918YS02001915        0.63      0.63      0.73      0.01         0.01
  YS02001920YS02001918        0.63      0.63      0.64      0.01         0.01
  YS02001923YS02001920        0.57      0.57      0.64      0.01         0.01
  YS02001926YS02001923        0.26      0.26      0.29      0.07         0.01
  YS02001929YS02001926        0.15      0.15      0.29      0.01         0.01
  YS02006553YS02006556        0.97      0.97      1.15      0.01         0.01
  YS02006556YS02006558        1.07      1.07      1.18      0.01         0.01
  YS02006558YS02006561        0.67      0.95      0.67      1.29         0.67
  YS02006561YS02001783        0.59      0.59      0.81      0.01         0.01
  YS02163301YS02001633        1.35      1.35      1.39      0.01         0.01
  YS02163601YS02164001        1.32      1.32      1.41      0.14         0.01
  YS02164001YS02001641        1.31      1.32      1.31      0.85         0.80
  
  
  ***************
  Pumping Summary
  ***************
  
  ---------------------------------------------------------------------------------------------------------
                                                  Min       Avg       Max     Total     Power    % Time Off
                        Percent   Number of      Flow      Flow      Flow    Volume     Usage    Pump Curve
  Pump                 Utilized   Start-Ups       LPS       LPS       LPS  10^6 ltr     Kw-hr    Low   High
  ---------------------------------------------------------------------------------------------------------
  CC-R1                   29.43          22      0.00    683.00    683.00     5.788    108.10    0.0   28.5
  CC-R2                   25.71          25      0.00    683.00    683.00     5.057     94.84    0.0   30.5
  CC-S1                   31.47          24      0.00    200.00    200.00     1.813      9.83    0.0    0.0
  CC-S2                   28.49          26      0.00    200.00    200.00     1.641      8.70    0.0    0.0
  JK-R1                    7.80          17      0.00   1000.00   1000.00     2.246     21.09    0.0    0.0
  JK-R2                    6.45          16      0.00   1000.00   1000.00     1.857     19.62    0.0    0.0
  JK-S                    15.51          39      0.00    300.00    300.00     1.340     22.21    0.0    0.0
  

  Analysis begun on:  Mon Dec 30 10:12:25 2024
  Analysis ended on:  Mon Dec 30 10:12:26 2024
  Total elapsed time: 00:00:01