
  EPA STORM WATER MANAGEMENT MODEL - VERSION 5.2 (Build 5.2.4)
  PYSWMM TOOLKIT API - VERSION v1.0 (2023-11-27)
  ------------------------------------------------------------

  WARNING 04: minimum elevation drop used for Conduit WS02004404WS02004405
  WARNING 03: negative offset ignored for Link YS02001904YS02001907
  
  ****************
  Analysis Options
  ****************
  Flow Units ............... LPS
  Process Models:
    Rainfall/Runoff ........ YES
    RDII ................... NO
    Snowmelt ............... NO
    Groundwater ............ NO
    Flow Routing ........... YES
    Ponding Allowed ........ NO
    Water Quality .......... NO
  Infiltration Method ...... HORTON
  Flow Routing Method ...... DYNWAVE
  Surcharge Method ......... EXTRAN
  Starting Date ............ 08/28/2015 08:00:00
  Ending Date .............. 08/28/2015 16:00:00
  Antecedent Dry Days ...... 8.0
  Report Time Step ......... 00:01:00
  Wet Time Step ............ 00:01:00
  Dry Time Step ............ 00:01:00
  Routing Time Step ........ 30.00 sec
  Variable Time Step ....... YES
  Maximum Trials ........... 8
  Number of Threads ........ 4
  Head Tolerance ........... 0.001500 m
  
  
  **************************        Volume         Depth
  Runoff Quantity Continuity     hectare-m            mm
  **************************     ---------       -------
  Total Precipitation ......         3.551       107.049
  Evaporation Loss .........         0.000         0.000
  Infiltration Loss ........         0.104         3.133
  Surface Runoff ...........         3.415       102.949
  Final Storage ............         0.033         0.996
  Continuity Error (%) .....        -0.027
  
  
  **************************        Volume        Volume
  Flow Routing Continuity        hectare-m      10^6 ltr
  **************************     ---------     ---------
  Dry Weather Inflow .......         0.025         0.251
  Wet Weather Inflow .......         3.415        34.151
  Groundwater Inflow .......         0.000         0.000
  RDII Inflow ..............         0.000         0.000
  External Inflow ..........         0.083         0.834
  External Outflow .........         1.996        19.960
  Flooding Loss ............         1.598        15.978
  Evaporation Loss .........         0.000         0.000
  Exfiltration Loss ........         0.000         0.000
  Initial Stored Volume ....         0.243         2.431
  Final Stored Volume ......         0.182         1.820
  Continuity Error (%) .....        -0.244
  
  
  *************************
  Highest Continuity Errors
  *************************
  Node YS02001884 (5.04%)
  Node YS02001583 (-3.82%)
  Node WS02006256 (-2.18%)
  
  
  ***************************
  Time-Step Critical Elements
  ***************************
  Link WS02006252WS02006251 (27.18%)
  Link WS02004404WS02004405 (20.30%)
  Link WS02006238WS02006235 (19.65%)
  Link YS02001791YS02001793 (10.84%)
  Link WS02006235WS02006234 (5.19%)
  
  
  ********************************
  Highest Flow Instability Indexes
  ********************************
  Link WS02006113WS02006111 (33)
  Link WS02006238WS02006235 (26)
  Link WS02006252WS02006251 (25)
  Link WS02006256WS02006235 (23)
  Link YS02001602YS02001605 (20)
  
  
  *********************************
  Most Frequent Nonconverging Nodes
  *********************************
  Node CC-1 (20.74%)
  Node CC-2 (20.74%)
  Node JK-1 (20.74%)
  Node JK-2 (20.74%)
  Node WSC (20.74%)
  
  
  *************************
  Routing Time Step Summary
  *************************
  Minimum Time Step           :     0.01 sec
  Average Time Step           :     2.57 sec
  Maximum Time Step           :     6.43 sec
  % of Time in Steady State   :     0.00
  Average Iterations per Step :     3.92
  % of Steps Not Converging   :    20.74
  Time Step Frequencies       :
     30.000 - 13.228 sec      :     0.00 %
     13.228 -  5.833 sec      :    12.72 %
      5.833 -  2.572 sec      :    24.14 %
      2.572 -  1.134 sec      :    31.40 %
      1.134 -  0.500 sec      :    31.75 %
  
  
  ***************************
  Subcatchment Runoff Summary
  ***************************
  
  ------------------------------------------------------------------------------------------------------------------------------
                            Total      Total      Total      Total     Imperv       Perv      Total       Total     Peak  Runoff
                           Precip      Runon       Evap      Infil     Runoff     Runoff     Runoff      Runoff   Runoff   Coeff
  Subcatchment                 mm         mm         mm         mm         mm         mm         mm    10^6 ltr      LPS
  ------------------------------------------------------------------------------------------------------------------------------
  sub60                    107.05       0.00       0.00       1.88      93.02      10.97     103.98        1.37   974.82   0.971
  sub61                    107.05       0.00       0.00       2.73      87.74      15.48     103.21        1.89  1354.25   0.964
  sub62                    107.05       0.00       0.00       1.25      97.21       7.31     104.53        2.86  1904.89   0.976
  sub63                    107.05       0.00       0.00       5.02      75.05      26.03     101.08        2.29  1533.11   0.944
  sub64                    107.05       0.00       0.00       2.54      89.80      13.52     103.32        2.48  1558.36   0.965
  sub65                    107.05       0.00       0.00       2.20      91.89      11.72     103.61        2.85  1746.80   0.968
  sub66                    107.05       0.00       0.00       6.21      74.94      24.84      99.77        4.65  2323.58   0.932
  sub67                    107.05       0.00       0.00       1.21      97.26       7.36     104.62        1.95  1451.70   0.977
  sub68                    107.05       0.00       0.00       2.26      90.89      12.73     103.62        2.85  1958.55   0.968
  sub69                    107.05       0.00       0.00       2.03      90.89      14.03     104.92        3.88  2322.10   0.980
  sub70                    107.05       0.00       0.00       6.77      70.49      29.63     100.13        2.89  1300.79   0.935
  sub71                    107.05       0.00       0.00       1.29      97.17       7.28     104.45        2.73  1684.40   0.976
  sub72                    107.05       0.00       0.00       1.14      98.16       6.35     104.51        1.44   818.30   0.976
  
  
  ******************
  Node Depth Summary
  ******************
  
  ---------------------------------------------------------------------------------
                                 Average  Maximum  Maximum  Time of Max    Reported
                                   Depth    Depth      HGL   Occurrence   Max Depth
  Node                 Type       Meters   Meters   Meters  days hr:min      Meters
  ---------------------------------------------------------------------------------
  WS02003060           JUNCTION     0.22     0.38     5.32     0  02:45        0.38
  WS02003066           JUNCTION     0.18     0.30     5.85     0  02:45        0.30
  WS02003067           JUNCTION     0.47     0.70     6.02     0  02:45        0.70
  WS02003069           JUNCTION     0.24     0.43     5.02     0  02:46        0.43
  WS02003072           JUNCTION     0.30     0.50     4.87     0  02:47        0.50
  WS02003073           JUNCTION     0.17     0.30     4.36     0  02:48        0.30
  WS02004401           JUNCTION     0.56     0.88     6.88     0  02:43        0.88
  WS02004402           JUNCTION     0.59     0.90     6.86     0  02:37        0.90
  WS02004403           JUNCTION     0.61     0.92     6.85     0  02:43        0.92
  WS02004404           JUNCTION     0.69     1.05     6.90     0  02:08        1.00
  WS02004405           JUNCTION     0.68     0.97     6.82     0  02:37        0.97
  WS02004406           JUNCTION     0.69     0.96     6.79     0  02:09        0.96
  WS02004407           JUNCTION     0.16     0.30     6.61     0  02:10        0.30
  WS02004409           JUNCTION     0.35     0.67     6.44     0  02:44        0.67
  WS02004410           JUNCTION     0.38     0.68     6.40     0  02:44        0.68
  WS02004411           JUNCTION     0.40     0.69     6.37     0  02:45        0.69
  WS02004412           JUNCTION     0.42     0.70     6.34     0  02:45        0.70
  WS02004413           JUNCTION     0.58     0.86     6.33     0  02:45        0.86
  WS02006109           JUNCTION     0.62     1.28     7.90     0  01:58        1.02
  WS02006110           JUNCTION     0.62     1.38     7.96     0  01:58        0.96
  WS02006111           JUNCTION     0.16     0.29     7.00     0  03:21        0.29
  WS02006112           JUNCTION     0.71     1.11     6.99     0  01:58        1.08
  WS02006113           JUNCTION     0.25     0.46     7.36     0  03:21        0.46
  WS02006115           JUNCTION     0.45     0.78     6.91     0  02:44        0.77
  WS02006116           JUNCTION     0.53     0.86     6.90     0  02:09        0.85
  WS02006228           JUNCTION     0.61     1.83     8.48     0  01:58        1.83
  WS02006229           JUNCTION     0.59     2.22     8.91     0  01:58        2.22
  WS02006230           JUNCTION     0.59     2.65     9.39     0  01:58        2.65
  WS02006231           JUNCTION     0.41     2.24     9.36     0  01:58        2.24
  WS02006232           JUNCTION     0.54     2.18     9.22     0  01:58        2.18
  WS02006234           JUNCTION     0.47     1.96     9.12     0  01:58        1.96
  WS02006235           JUNCTION     0.51     2.00     9.16     0  01:58        2.00
  WS02006238           JUNCTION     0.54     2.15     9.29     0  01:58        2.15
  WS02006239           JUNCTION     0.50     2.03     9.24     0  01:58        2.03
  WS02006240           JUNCTION     0.47     2.10     9.39     0  03:50        1.93
  WS02006242           JUNCTION     0.54     1.55     8.82     0  01:58        1.55
  WS02006243           JUNCTION     0.46     1.48     8.90     0  03:21        1.48
  WS02006245           JUNCTION     0.46     1.50     8.99     0  03:21        1.50
  WS02006247           JUNCTION     0.48     1.41     8.91     0  03:21        1.41
  WS02006248           JUNCTION     0.44     1.10     8.69     0  01:50        1.10
  WS02006249           JUNCTION     0.47     1.09     8.69     0  01:49        1.09
  WS02006251           JUNCTION     0.47     1.37     9.04     0  01:49        1.13
  WS02006252           JUNCTION     0.34     1.50     9.74     0  00:00        0.75
  WS02006256           JUNCTION     1.07     2.35     9.28     0  00:00        2.35
  WSF200               JUNCTION     0.15     0.29     5.52     0  02:46        0.29
  YS02001580           JUNCTION     0.16     1.05     9.59     0  01:39        0.77
  YS02001583           JUNCTION     0.20     1.14     9.64     0  01:39        0.85
  YS02001586           JUNCTION     0.31     1.13     9.30     0  01:39        1.13
  YS02001590           JUNCTION     0.43     1.40     9.26     0  01:39        1.38
  YS02001593           JUNCTION     0.36     1.40     9.26     0  02:25        1.40
  YS02001596           JUNCTION     0.50     1.76     9.18     0  02:20        1.76
  YS02001600           JUNCTION     0.59     1.87     9.00     0  01:39        1.87
  YS02001601           JUNCTION     0.79     2.06     8.90     0  01:37        2.06
  YS02001602           JUNCTION     0.69     1.87     8.77     0  01:38        1.87
  YS02001605           JUNCTION     0.64     1.78     8.68     0  01:38        1.78
  YS02001607           JUNCTION     0.60     1.68     8.53     0  01:39        1.66
  YS02001610           JUNCTION     0.64     1.68     8.48     0  01:38        1.68
  YS02001613           JUNCTION     0.60     1.70     8.54     0  01:39        1.68
  YS02001616           JUNCTION     0.54     1.61     8.52     0  01:38        1.61
  YS02001619           JUNCTION     0.51     1.61     8.54     0  01:38        1.61
  YS02001622           JUNCTION     0.50     1.62     8.52     0  01:38        1.60
  YS02001625           JUNCTION     0.75     1.78     8.38     0  01:39        1.78
  YS02001629           JUNCTION     0.65     1.85     8.40     0  01:38        1.85
  YS02001633           JUNCTION     0.73     2.08     8.53     0  01:39        2.08
  YS02001641           JUNCTION     0.70     2.08     8.52     0  02:20        1.97
  YS02001644           JUNCTION     0.69     1.92     8.35     0  01:43        1.92
  YS02001647           JUNCTION     0.47     1.82     8.43     0  01:44        1.79
  YS02001649           JUNCTION     0.54     2.05     8.44     0  01:44        2.05
  YS02001652           JUNCTION     0.42     2.16     8.76     0  01:44        1.94
  YS02001655           JUNCTION     0.33     2.20     9.05     0  01:44        1.80
  YS02001658           JUNCTION     0.25     2.30     9.44     0  01:44        1.65
  YS02001661           JUNCTION     0.23     1.60     9.01     0  01:47        1.51
  YS02001664           JUNCTION     0.10     1.21     9.14     0  01:47        1.12
  YS02001745           JUNCTION     0.13     1.16     8.67     0  01:47        1.07
  YS02001748           JUNCTION     0.23     2.27     9.35     0  01:44        1.44
  YS02001751           JUNCTION     0.29     2.20     9.08     0  01:44        1.59
  YS02001754           JUNCTION     0.37     2.20     8.81     0  01:44        1.83
  YS02001757           JUNCTION     0.56     2.18     8.44     0  01:44        2.15
  YS02001759           JUNCTION     0.50     2.21     8.57     0  01:48        2.21
  YS02001762           JUNCTION     0.49     2.15     8.55     0  01:44        2.15
  YS02001765           JUNCTION     0.47     2.10     8.55     0  01:44        2.08
  YS02001767           JUNCTION     0.46     2.03     8.52     0  01:44        2.01
  YS02001770           JUNCTION     0.47     1.95     8.44     0  01:44        1.95
  YS02001774           JUNCTION     0.53     2.01     8.43     0  01:48        2.01
  YS02001779           JUNCTION     0.36     1.68     8.37     0  01:43        1.68
  YS02001783           JUNCTION     0.34     1.29     7.43     0  01:48        1.27
  YS02001784           JUNCTION     0.35     1.39     7.45     0  02:20        1.15
  YS02001786           JUNCTION     0.29     0.91     6.94     0  01:48        0.89
  YS02001788           JUNCTION     0.21     0.63     6.61     0  01:49        0.63
  YS02001790           JUNCTION     0.25     0.74     6.38     0  01:50        0.73
  YS02001791           JUNCTION     0.15     0.45     5.92     0  01:50        0.44
  YS02001793           JUNCTION     0.08     0.31     5.14     0  01:50        0.29
  YS02001882           JUNCTION     0.43     1.82     8.54     0  01:48        1.82
  YS02001884           JUNCTION     0.52     1.90     8.52     0  01:48        1.90
  YS02001887           JUNCTION     0.59     2.00     8.54     0  01:48        2.00
  YS02001890           JUNCTION     0.62     1.81     8.32     0  01:42        1.81
  YS02001895           JUNCTION     0.39     1.57     8.32     0  01:58        1.57
  YS02001898           JUNCTION     0.40     1.57     8.31     0  01:48        1.57
  YS02001901           JUNCTION     0.51     1.68     8.29     0  01:42        1.68
  YS02001904           JUNCTION     0.49     1.65     8.28     0  01:42        1.64
  YS02001907           JUNCTION     0.80     1.96     8.25     0  01:42        1.96
  YS02001910           JUNCTION     0.62     2.01     8.52     0  01:53        2.01
  YS02001915           JUNCTION     0.44     2.00     8.72     0  01:47        2.00
  YS02001918           JUNCTION     0.27     1.81     8.88     0  01:42        1.81
  YS02001920           JUNCTION     0.35     2.14     9.15     0  01:42        2.11
  YS02001923           JUNCTION     0.21     2.03     9.29     0  01:42        2.03
  YS02001926           JUNCTION     0.24     1.90     9.35     0  01:42        1.90
  YS02001929           JUNCTION     0.15     1.78     9.47     0  01:42        1.78
  YS02006553           JUNCTION     0.81     2.04     8.32     0  01:48        2.04
  YS02006556           JUNCTION     0.78     2.12     8.43     0  01:48        2.12
  YS02006558           JUNCTION     0.82     2.22     8.49     0  01:48        2.22
  YS02006561           JUNCTION     0.22     0.98     7.64     0  01:48        0.95
  YS02163301           JUNCTION     0.67     1.98     8.50     0  01:39        1.98
  YS02163601           JUNCTION     0.76     2.08     8.48     0  01:39        2.08
  YS02164001           JUNCTION     0.69     2.10     8.56     0  02:20        2.00
  CC-1                 OUTFALL      0.00     0.00     0.00     0  00:00        0.00
  CC-2                 OUTFALL      0.00     0.00     0.00     0  00:00        0.00
  JK-1                 OUTFALL      0.00     0.00     0.00     0  00:00        0.00
  JK-2                 OUTFALL      0.00     0.00     0.00     0  00:00        0.00
  WSC                  OUTFALL      0.17     0.30     0.97     0  02:48        0.30
  CC-storage           STORAGE      0.89     1.83     7.33     0  02:32        1.83
  JK-storage           STORAGE      1.73     4.24     5.04     0  01:50        4.20
  
  
  *******************
  Node Inflow Summary
  *******************
  
  -------------------------------------------------------------------------------------------------
                                  Maximum  Maximum                  Lateral       Total        Flow
                                  Lateral    Total  Time of Max      Inflow      Inflow     Balance
                                   Inflow   Inflow   Occurrence      Volume      Volume       Error
  Node                 Type           LPS      LPS  days hr:min    10^6 ltr    10^6 ltr     Percent
  -------------------------------------------------------------------------------------------------
  WS02003060           JUNCTION     16.53   555.90     0  02:46       0.476        4.86       0.047
  WS02003066           JUNCTION      0.00   539.30     0  02:45           0        4.38       0.032
  WS02003067           JUNCTION      0.00   539.30     0  02:45           0        4.39       0.096
  WS02003069           JUNCTION      0.32   556.16     0  02:45     0.00922        4.86       0.082
  WS02003072           JUNCTION      0.00   556.19     0  02:46           0        4.86       0.144
  WS02003073           JUNCTION      1.82   557.96     0  02:47      0.0524        4.91       0.115
  WS02004401           JUNCTION      0.00   542.00     0  03:22           0        4.48       0.228
  WS02004402           JUNCTION      0.00   541.49     0  02:38           0        4.47       0.233
  WS02004403           JUNCTION      0.00   542.88     0  02:41           0        4.46       0.225
  WS02004404           JUNCTION      0.16   561.89     0  02:43     0.00467        4.46       0.118
  WS02004405           JUNCTION      0.04   605.79     0  02:43      0.0011        4.45       0.238
  WS02004406           JUNCTION      0.00   547.73     0  02:09           0        4.44       0.468
  WS02004407           JUNCTION      0.00   541.96     0  02:10           0        4.42       0.026
  WS02004409           JUNCTION      0.00   541.12     0  02:10           0        4.42       0.060
  WS02004410           JUNCTION      0.00   540.37     0  02:10           0        4.42       0.100
  WS02004411           JUNCTION      0.00   539.87     0  02:10           0        4.41       0.127
  WS02004412           JUNCTION      0.00   539.52     0  02:11           0        4.41       0.170
  WS02004413           JUNCTION      0.00   539.38     0  02:45           0         4.4       0.304
  WS02006109           JUNCTION      1.23   587.35     0  01:58      0.0354        4.53       0.159
  WS02006110           JUNCTION      0.00   594.71     0  01:58           0        4.52       0.152
  WS02006111           JUNCTION      0.00   574.93     0  03:21           0        4.51       0.023
  WS02006112           JUNCTION      0.00   550.39     0  03:21           0        4.51       0.420
  WS02006113           JUNCTION      0.00   597.53     0  03:21           0        4.52       0.041
  WS02006115           JUNCTION      0.00   560.98     0  03:21           0        4.49       0.152
  WS02006116           JUNCTION      0.00   543.78     0  03:22           0        4.49       0.114
  WS02006228           JUNCTION      0.00   584.15     0  01:58           0         4.5       0.055
  WS02006229           JUNCTION      0.00   582.87     0  01:58           0         4.5       0.120
  WS02006230           JUNCTION     10.28   584.10     0  03:20       0.296        4.51       0.076
  WS02006231           JUNCTION      0.00   578.87     0  02:51           0        4.21       0.052
  WS02006232           JUNCTION      0.00   577.90     0  02:51           0        4.22       0.202
  WS02006234           JUNCTION      0.00   572.69     0  02:51           0        4.21      -0.350
  WS02006235           JUNCTION      0.00   563.23     0  02:51           0        4.31       0.407
  WS02006238           JUNCTION      0.00   424.82     0  03:17           0        3.26      -0.140
  WS02006239           JUNCTION      0.00   423.93     0  03:17           0         3.2      -0.102
  WS02006240           JUNCTION      0.00   421.15     0  03:17           0        3.17      -0.044
  WS02006242           JUNCTION      0.00   421.69     0  03:17           0        3.16      -0.018
  WS02006243           JUNCTION      0.00   421.39     0  03:17           0        3.15      -0.223
  WS02006245           JUNCTION      0.00   420.54     0  03:17           0        3.17       0.482
  WS02006247           JUNCTION      0.00   419.78     0  03:17           0        3.17       0.021
  WS02006248           JUNCTION      0.00   419.55     0  02:20           0        3.17      -0.078
  WS02006249           JUNCTION      0.00   459.80     0  04:10           0        3.44       0.628
  WS02006251           JUNCTION      0.08   406.45     0  01:49     0.00222        3.44      -0.007
  WS02006252           JUNCTION      0.00   400.00     0  00:00           0        3.43      -0.301
  WS02006256           JUNCTION      0.00   300.00     0  00:00           0        1.53      -2.129
  WSF200               JUNCTION      0.00   539.31     0  02:45           0        4.38       0.010
  YS02001580           JUNCTION      0.00   136.66     0  01:39           0     0.00441      -0.738
  YS02001583           JUNCTION      0.00   160.79     0  01:39           0      0.0156      -3.678
  YS02001586           JUNCTION   1300.79  1300.86     0  01:52        2.89         2.9       0.041
  YS02001590           JUNCTION      0.00   322.33     0  02:20           0        1.74      -0.021
  YS02001593           JUNCTION      0.00   319.18     0  02:20           0        1.74       0.001
  YS02001596           JUNCTION      0.00   318.12     0  01:53           0        1.74      -0.013
  YS02001600           JUNCTION      0.00   318.09     0  01:51           0        1.74       0.008
  YS02001601           JUNCTION   2322.10  2640.74     0  01:51        3.88        5.62       0.008
  YS02001602           JUNCTION      0.00   523.02     0  01:38           0        2.75       0.013
  YS02001605           JUNCTION      0.00   523.02     0  01:38           0        2.55       0.018
  YS02001607           JUNCTION      0.00   522.98     0  01:38           0        2.55       0.075
  YS02001610           JUNCTION      0.00   954.13     0  02:00           0         3.3       0.068
  YS02001613           JUNCTION      0.00   618.45     0  02:00           0         2.5       0.060
  YS02001616           JUNCTION      0.00   618.01     0  02:00           0        2.51       0.015
  YS02001619           JUNCTION   2323.58  2323.58     0  01:52        4.65        6.41      -0.000
  YS02001622           JUNCTION      0.00  1053.99     0  01:53           0        5.35      -0.004
  YS02001625           JUNCTION      0.00  1505.36     0  01:59           0        5.83       0.162
  YS02001629           JUNCTION      0.00   954.20     0  01:51           0        4.22       0.015
  YS02001633           JUNCTION   1747.00  1747.00     0  01:51        2.86        6.31       0.058
  YS02001641           JUNCTION      0.00  1398.74     0  01:42           0        5.55       0.055
  YS02001644           JUNCTION   1558.40  2850.69     0  01:50        2.48        8.16       0.038
  YS02001647           JUNCTION      0.00  1828.38     0  01:42           0        6.47       0.012
  YS02001649           JUNCTION      0.00  2105.34     0  01:42           0        8.64       0.007
  YS02001652           JUNCTION      0.00  1534.31     0  01:50           0         2.3      -0.045
  YS02001655           JUNCTION      0.15  1534.52     0  01:50     0.00443         2.3      -0.037
  YS02001658           JUNCTION      0.00  1533.98     0  01:50           0        2.31      -0.042
  YS02001661           JUNCTION      0.00  1533.88     0  01:50           0         2.3       0.007
  YS02001664           JUNCTION   1533.11  1533.11     0  01:50        2.29        2.29      -0.011
  YS02001745           JUNCTION    974.82   974.82     0  01:50        1.37        1.37       0.145
  YS02001748           JUNCTION      0.04   974.76     0  01:50      0.0013        1.37      -0.214
  YS02001751           JUNCTION      0.01   974.62     0  01:50    0.000317        1.37       0.013
  YS02001754           JUNCTION      0.26   975.47     0  01:49     0.00749        1.39      -0.109
  YS02001757           JUNCTION      0.00  3586.97     0  01:47           0        13.7       0.042
  YS02001759           JUNCTION   1354.29  1524.54     0  01:47         1.9        3.83      -0.009
  YS02001762           JUNCTION      0.00   802.95     0  01:44           0        1.93       0.009
  YS02001765           JUNCTION      0.00   803.43     0  01:44           0        1.93      -0.000
  YS02001767           JUNCTION      0.54   803.75     0  01:44      0.0154        1.93      -0.002
  YS02001770           JUNCTION   1905.05  1905.05     0  01:50        2.87        2.92      -0.011
  YS02001774           JUNCTION      0.00   851.85     0  01:53           0       0.745       0.126
  YS02001779           JUNCTION      0.01   851.69     0  01:53    0.000144       0.698      -0.119
  YS02001783           JUNCTION      0.00  1189.18     0  01:49           0        5.27       0.004
  YS02001784           JUNCTION      1.06  1190.85     0  01:49      0.0305         5.3       0.013
  YS02001786           JUNCTION      0.06  1192.18     0  01:49     0.00162         5.3       0.010
  YS02001788           JUNCTION      0.07  1192.19     0  01:49     0.00204         5.3       0.005
  YS02001790           JUNCTION      0.15  1197.12     0  01:48     0.00446        5.31       0.019
  YS02001791           JUNCTION      0.00  1318.66     0  01:50           0        5.31      -0.029
  YS02001793           JUNCTION      0.00  1282.25     0  01:50           0        5.31       0.002
  YS02001882           JUNCTION      0.00    56.57     0  01:40           0      0.0135       4.434
  YS02001884           JUNCTION      0.00    71.22     0  01:40           0      0.0505       5.309
  YS02001887           JUNCTION   1452.15  1455.34     0  01:49        1.96        1.99       0.217
  YS02001890           JUNCTION      0.00  1456.05     0  01:49           0        1.95       0.258
  YS02001895           JUNCTION      0.00   518.73     0  01:48           0         1.5       0.111
  YS02001898           JUNCTION      0.00   518.49     0  01:49           0         1.5       0.000
  YS02001901           JUNCTION      0.00   518.05     0  01:53           0         1.5       0.229
  YS02001904           JUNCTION      0.00   518.51     0  01:48           0         1.5       0.190
  YS02001907           JUNCTION      0.00  3287.98     0  01:50           0        5.88       0.305
  YS02001910           JUNCTION      0.00  1993.18     0  01:55           0         4.1       0.176
  YS02001915           JUNCTION   1684.42  2505.85     0  01:51        2.73        4.29       0.036
  YS02001918           JUNCTION      0.00   823.39     0  01:51           0        1.59      -0.002
  YS02001920           JUNCTION      2.87   823.25     0  01:51      0.0827        1.57       0.074
  YS02001923           JUNCTION      0.04   818.64     0  01:51     0.00109        1.47      -0.091
  YS02001926           JUNCTION      0.05   819.39     0  01:51      0.0015        1.45      -0.058
  YS02001929           JUNCTION    818.30   818.30     0  01:51        1.44        1.44      -0.051
  YS02006553           JUNCTION      0.00   800.58     0  02:20           0        3.01       0.400
  YS02006556           JUNCTION      0.00   794.75     0  02:17           0        3.02       0.272
  YS02006558           JUNCTION   1959.43  1959.43     0  01:50        2.88        5.59       0.063
  YS02006561           JUNCTION      0.00  1189.80     0  01:49           0        5.27       0.000
  YS02163301           JUNCTION      0.00   952.59     0  01:51           0        4.21       0.036
  YS02163601           JUNCTION      0.11  1399.01     0  01:42     0.00317        5.55       0.094
  YS02164001           JUNCTION      0.00  1397.63     0  01:42           0        5.55       0.050
  CC-1                 OUTFALL       0.00   683.00     0  00:00           0        5.44       0.000
  CC-2                 OUTFALL       0.00   683.00     0  00:00           0         5.7       0.000
  JK-1                 OUTFALL       0.00  1000.00     0  00:00           0        2.56       0.000
  JK-2                 OUTFALL       0.00  1000.00     0  00:00           0        1.35       0.000
  WSC                  OUTFALL       0.00   557.83     0  02:48           0         4.9       0.000
  CC-storage           STORAGE       0.00  3587.52     0  01:47           0        15.9      -0.205
  JK-storage           STORAGE       0.00  1239.13     0  02:04           0        5.46      -0.313
  
  
  **********************
  Node Surcharge Summary
  **********************
  
  Surcharging occurs when water rises above the top of the highest conduit.
  ---------------------------------------------------------------------
                                               Max. Height   Min. Depth
                                   Hours       Above Crown    Below Rim
  Node                 Type      Surcharged         Meters       Meters
  ---------------------------------------------------------------------
  WS02004404           JUNCTION        0.03          0.049        2.731
  WS02006109           JUNCTION        1.89          0.465        1.355
  WS02006110           JUNCTION        0.85          0.468        1.382
  WS02006112           JUNCTION        1.00          0.106        1.574
  WS02006228           JUNCTION        1.89          1.002        1.198
  WS02006229           JUNCTION        1.89          1.416        1.034
  WS02006230           JUNCTION        0.86          1.570        0.000
  WS02006231           JUNCTION        0.99          1.530        0.000
  WS02006232           JUNCTION        1.92          1.480        0.000
  WS02006234           JUNCTION        1.37          1.240        0.000
  WS02006235           JUNCTION        1.85          1.290        0.000
  WS02006238           JUNCTION        1.88          1.430        0.000
  WS02006239           JUNCTION        1.86          1.290        0.000
  WS02006240           JUNCTION        1.88          1.390        0.000
  WS02006242           JUNCTION        1.92          0.820        0.000
  WS02006243           JUNCTION        1.88          0.770        0.000
  WS02006245           JUNCTION        1.86          0.793        0.057
  WS02006247           JUNCTION        1.86          0.704        0.056
  WS02006248           JUNCTION        1.85          0.380        0.000
  WS02006249           JUNCTION        1.85          0.390        0.000
  WS02006251           JUNCTION        1.05          0.335        0.845
  WS02006252           JUNCTION        2.13          1.100        0.000
  WS02006256           JUNCTION        6.78          2.050        0.000
  YS02001580           JUNCTION        0.99          0.450        0.000
  YS02001583           JUNCTION        1.00          0.500        0.000
  YS02001586           JUNCTION        1.17          0.510        0.000
  YS02001590           JUNCTION        1.26          0.750        0.000
  YS02001593           JUNCTION        1.26          0.778        0.062
  YS02001596           JUNCTION        1.41          1.034        0.036
  YS02001600           JUNCTION        1.54          1.190        0.000
  YS02001601           JUNCTION        1.78          1.440        0.000
  YS02001602           JUNCTION        1.71          1.270        0.000
  YS02001605           JUNCTION        1.67          1.180        0.000
  YS02001607           JUNCTION        1.28          0.680        0.000
  YS02001610           JUNCTION        1.31          0.680        0.000
  YS02001613           JUNCTION        1.27          0.697        0.003
  YS02001616           JUNCTION        1.22          0.610        0.000
  YS02001619           JUNCTION        1.20          0.610        0.000
  YS02001622           JUNCTION        1.20          0.620        0.000
  YS02001625           JUNCTION        1.42          0.780        0.000
  YS02001629           JUNCTION        1.14          0.470        0.000
  YS02001633           JUNCTION        1.45          1.060        0.000
  YS02001641           JUNCTION        1.41          1.082        0.018
  YS02001644           JUNCTION        1.38          0.920        0.000
  YS02001647           JUNCTION        1.13          0.818        0.082
  YS02001649           JUNCTION        1.31          1.050        0.000
  YS02001652           JUNCTION        1.05          1.130        0.000
  YS02001655           JUNCTION        0.80          1.200        0.000
  YS02001658           JUNCTION        0.45          1.300        0.000
  YS02001661           JUNCTION        0.21          0.534        0.856
  YS02001664           JUNCTION        0.05          0.211        1.099
  YS02001745           JUNCTION        0.04          0.155        1.195
  YS02001748           JUNCTION        0.35          1.190        0.000
  YS02001751           JUNCTION        0.61          1.200        0.000
  YS02001754           JUNCTION        0.95          1.150        0.000
  YS02001757           JUNCTION        1.36          1.182        0.028
  YS02001759           JUNCTION        1.28          1.210        0.000
  YS02001762           JUNCTION        1.24          1.150        0.000
  YS02001765           JUNCTION        1.18          1.100        0.000
  YS02001767           JUNCTION        1.14          1.030        0.000
  YS02001770           JUNCTION        1.10          0.920        0.000
  YS02001774           JUNCTION        1.22          1.013        0.037
  YS02001779           JUNCTION        0.92          0.680        0.000
  YS02001783           JUNCTION        0.81          0.494        1.106
  YS02001784           JUNCTION        0.78          0.585        0.905
  YS02001786           JUNCTION        0.64          0.108        1.322
  YS02001882           JUNCTION        0.74          0.819        0.011
  YS02001884           JUNCTION        0.75          0.842        0.028
  YS02001887           JUNCTION        0.80          0.950        0.000
  YS02001890           JUNCTION        0.82          0.760        0.000
  YS02001895           JUNCTION        0.73          0.568        0.182
  YS02001898           JUNCTION        0.72          0.542        0.198
  YS02001901           JUNCTION        0.78          0.683        0.187
  YS02001904           JUNCTION        0.77          0.647        0.203
  YS02001907           JUNCTION        1.07          0.950        0.000
  YS02001910           JUNCTION        0.85          1.015        0.085
  YS02001915           JUNCTION        0.74          1.000        0.000
  YS02001918           JUNCTION        0.63          0.810        0.000
  YS02001920           JUNCTION        0.66          1.140        0.000
  YS02001923           JUNCTION        0.29          0.820        0.000
  YS02001926           JUNCTION        0.31          0.900        0.000
  YS02001929           JUNCTION        0.18          0.780        0.000
  YS02006553           JUNCTION        1.10          1.038        0.152
  YS02006556           JUNCTION        0.96          1.077        0.273
  YS02006558           JUNCTION        0.95          1.121        0.279
  YS02006561           JUNCTION        0.60          0.183        0.967
  YS02163301           JUNCTION        1.43          0.981        0.049
  YS02163601           JUNCTION        1.48          1.080        0.000
  YS02164001           JUNCTION        1.41          1.100        0.000
  
  
  *********************
  Node Flooding Summary
  *********************
  
  Flooding refers to all water that overflows a node, whether it ponds or not.
  --------------------------------------------------------------------------
                                                             Total   Maximum
                                 Maximum   Time of Max       Flood    Ponded
                        Hours       Rate    Occurrence      Volume     Depth
  Node                 Flooded       LPS   days hr:min    10^6 ltr    Meters
  --------------------------------------------------------------------------
  WS02006230              0.01      2.10      0  01:58       0.000     0.000
  WS02006231              0.01      1.05      0  01:58       0.000     0.000
  WS02006232              0.01      0.76      0  01:58       0.000     0.000
  WS02006234              0.01      0.48      0  01:58       0.000     0.000
  WS02006235              0.01      5.27      0  01:58       0.000     0.000
  WS02006238              0.01      4.18      0  01:58       0.000     0.000
  WS02006239              0.01      1.09      0  01:58       0.000     0.000
  WS02006240              0.01     65.36      0  03:50       0.000     0.000
  WS02006242              0.01     51.82      0  03:50       0.000     0.000
  WS02006243              0.01     78.64      0  03:50       0.000     0.000
  WS02006248              0.01     24.31      0  03:21       0.001     0.000
  WS02006249              1.02    109.65      0  03:21       0.249     0.000
  WS02006252              0.01    245.63      0  00:00       0.000     0.000
  WS02006256              1.41    293.19      0  00:00       0.494     0.000
  YS02001580              0.01    126.43      0  01:39       0.000     0.000
  YS02001583              0.01     41.14      0  01:39       0.000     0.000
  YS02001586              0.81    983.48      0  01:52       1.152     0.000
  YS02001590              0.01      2.74      0  01:39       0.000     0.000
  YS02001600              0.01      4.28      0  02:20       0.000     0.000
  YS02001601              1.07   2242.39      0  01:51       2.874     0.000
  YS02001602              0.96     62.09      0  01:51       0.196     0.000
  YS02001605              0.01      5.13      0  01:39       0.000     0.000
  YS02001607              0.01     15.81      0  01:39       0.000     0.000
  YS02001610              0.85    954.00      0  02:00       1.546     0.000
  YS02001616              0.11     39.91      0  01:39       0.001     0.000
  YS02001619              0.22    658.55      0  01:52       0.302     0.000
  YS02001622              0.01     89.56      0  01:38       0.000     0.000
  YS02001625              0.82   1505.17      0  01:59       2.359     0.000
  YS02001629              0.28    537.61      0  01:50       0.292     0.000
  YS02001633              0.01      1.83      0  01:48       0.000     0.000
  YS02001644              0.38   2850.66      0  01:50       1.806     0.000
  YS02001649              0.01     63.06      0  01:47       0.001     0.000
  YS02001652              0.01     44.99      0  01:44       0.000     0.000
  YS02001655              0.01     79.65      0  01:44       0.000     0.000
  YS02001658              0.01    405.43      0  01:44       0.000     0.000
  YS02001748              0.01    337.65      0  01:44       0.000     0.000
  YS02001751              0.01    237.31      0  01:44       0.000     0.000
  YS02001754              0.01     69.87      0  01:44       0.000     0.000
  YS02001759              0.01      0.84      0  01:48       0.000     0.000
  YS02001762              0.01      8.30      0  01:44       0.000     0.000
  YS02001765              0.01      3.40      0  01:44       0.000     0.000
  YS02001767              0.01      2.95      0  01:44       0.000     0.000
  YS02001770              0.15    944.70      0  01:50       0.278     0.000
  YS02001779              0.34    851.42      0  01:53       0.676     0.000
  YS02001887              0.01      1.30      0  01:48       0.000     0.000
  YS02001890              0.32    938.78      0  01:49       0.450     0.000
  YS02001907              0.57   3287.96      0  01:50       3.150     0.000
  YS02001915              0.13    512.98      0  01:51       0.148     0.000
  YS02001918              0.01    157.75      0  01:43       0.002     0.000
  YS02001920              0.01     51.61      0  01:42       0.000     0.000
  YS02001923              0.01    105.05      0  01:42       0.000     0.000
  YS02001926              0.01    146.65      0  01:43       0.001     0.000
  YS02001929              0.01    176.75      0  01:42       0.001     0.000
  YS02163601              0.01     30.50      0  02:20       0.000     0.000
  YS02164001              0.01     21.66      0  02:20       0.000     0.000
  
  
  **********************
  Storage Volume Summary
  **********************
  
  ------------------------------------------------------------------------------------------------
                         Average    Avg   Evap  Exfil     Maximum    Max    Time of Max    Maximum
                          Volume   Pcnt   Pcnt   Pcnt      Volume   Pcnt     Occurrence    Outflow
  Storage Unit           1000 m³   Full   Loss   Loss     1000 m³   Full    days hr:min        LPS
  ------------------------------------------------------------------------------------------------
  CC-storage               2.481   38.7    0.0    0.0       5.100   79.6       0  02:32    1783.53
  JK-storage               0.087   29.8    0.0    0.0       0.213   73.2       0  01:50    2300.00
  
  
  ***********************
  Outfall Loading Summary
  ***********************
  
  -----------------------------------------------------------
                         Flow       Avg       Max       Total
                         Freq      Flow      Flow      Volume
  Outfall Node           Pcnt       LPS       LPS    10^6 ltr
  -----------------------------------------------------------
  CC-1                  46.24    683.00    683.00       5.444
  CC-2                  51.31    683.00    683.00       5.703
  JK-1                  14.21   1000.00   1000.00       2.560
  JK-2                   8.22   1000.00   1000.00       1.353
  WSC                   99.95    233.56    557.83       4.900
  -----------------------------------------------------------
  System                43.99   3599.56   3922.32      19.960
  
  
  ********************
  Link Flow Summary
  ********************
  
  -----------------------------------------------------------------------------
                                 Maximum  Time of Max   Maximum    Max/    Max/
                                  |Flow|   Occurrence   |Veloc|    Full    Full
  Link                 Type          LPS  days hr:min     m/sec    Flow   Depth
  -----------------------------------------------------------------------------
  1                    CONDUIT    557.83     0  02:48      2.83    0.19    0.30
  WS02003060WS02003069 CONDUIT    555.84     0  02:45      1.64    0.22    0.34
  WS02003066WSF200     CONDUIT    539.31     0  02:45      2.85    0.09    0.22
  WS02003067WS02003066 CONDUIT    539.30     0  02:45      1.21    0.17    0.42
  WS02003069WS02003072 CONDUIT    556.19     0  02:46      1.37    0.27    0.39
  WS02003072WS02003073 CONDUIT    556.14     0  02:47      1.44    1.20    0.37
  WS02004401WS02004402 CONDUIT    541.49     0  02:38      1.08    0.65    0.89
  WS02004402WS02004403 CONDUIT    542.88     0  02:41      1.09    0.78    0.91
  WS02004403WS02004404 CONDUIT    561.73     0  02:43      1.05    0.41    0.96
  WS02004404WS02004405 CONDUIT    605.75     0  02:43      1.24    5.93    0.98
  WS02004405WS02004406 CONDUIT    547.73     0  02:09      1.20    1.08    0.96
  WS02004406WS02004407 CONDUIT    541.96     0  02:10      1.04    0.24    0.63
  WS02004407WS02004409 CONDUIT    541.12     0  02:10      1.50    0.19    0.48
  WS02004409WS02004410 CONDUIT    540.37     0  02:10      0.98    0.70    0.68
  WS02004410WS02004411 CONDUIT    539.87     0  02:10      0.94    0.74    0.69
  WS02004411WS02004412 CONDUIT    539.52     0  02:11      0.93    0.77    0.70
  WS02004412WS02004413 CONDUIT    539.38     0  02:45      0.82    0.36    0.78
  WS02004413WS02003067 CONDUIT    539.30     0  02:45      1.11    0.23    0.59
  WS02006109WS02006110 CONDUIT    594.71     0  01:58      1.19    1.14    1.00
  WS02006110WS02006113 CONDUIT    597.53     0  03:21      1.43    0.54    0.79
  WS02006111WS02006112 CONDUIT    550.39     0  03:21      1.87    0.26    0.68
  WS02006112WS02006115 CONDUIT    560.98     0  03:21      0.79    0.33    0.88
  WS02006113WS02006111 CONDUIT    574.93     0  03:21      2.49    0.69    0.47
  WS02006115WS02006116 CONDUIT    543.78     0  03:22      1.09    0.70    0.78
  WS02006116WS02004401 CONDUIT    542.00     0  03:22      1.07    0.75    0.87
  WS02006228WS02006109 CONDUIT    586.12     0  01:58      1.17    2.56    1.00
  WS02006229WS02006228 CONDUIT    584.15     0  01:58      1.16    1.93    1.00
  WS02006230WS02006229 CONDUIT    582.87     0  01:58      1.51   12.97    1.00
  WS02006231WS02006230 CONDUIT    573.82     0  03:20      1.57    8.70    1.00
  WS02006232WS02006231 CONDUIT    578.87     0  02:51      1.51    1.21    1.00
  WS02006234WS02006232 CONDUIT    577.90     0  02:51      1.50    1.17    1.00
  WS02006235WS02006234 CONDUIT    572.69     0  02:51      1.49    6.04    1.00
  WS02006238WS02006235 CONDUIT    424.86     0  02:20      1.46    0.95    1.00
  WS02006239WS02006238 CONDUIT    424.82     0  03:17      1.10    1.36    1.00
  WS02006240WS02006239 CONDUIT    423.93     0  03:17      1.24    1.33    1.00
  WS02006242WS02006240 CONDUIT    421.15     0  03:17      1.13    1.67    1.00
  WS02006243WS02006242 CONDUIT    421.69     0  03:17      1.40    0.90    1.00
  WS02006245WS02006243 CONDUIT    421.39     0  03:17      1.45    1.25    1.00
  WS02006247WS02006245 CONDUIT    420.54     0  03:17      1.43    3.33    1.00
  WS02006248WS02006247 CONDUIT    419.78     0  03:17      1.44    0.91    1.00
  WS02006249WS02006248 CONDUIT    419.55     0  02:20      1.36    2.30    1.00
  WS02006251WS02006249 CONDUIT    459.80     0  04:10      1.99    1.33    1.00
  WS02006252WS02006251 CONDUIT    406.37     0  01:49     17.62    1.49    1.00
  WS02006256WS02006235 CONDUIT    288.91     0  00:00      4.23    3.06    1.00
  WSF200WS02003060     CONDUIT    539.37     0  02:46      2.06    0.12    0.28
  YS02001580YS02001583 CONDUIT    136.66     0  01:39      0.65    0.53    1.00
  YS02001583YS02001586 CONDUIT    155.44     0  01:38      0.67    0.24    1.00
  YS02001586YS02001590 CONDUIT    322.33     0  02:20      1.25    0.56    1.00
  YS02001590YS02001593 CONDUIT    319.18     0  02:20      1.13    2.00    1.00
  YS02001593YS02001596 CONDUIT    318.12     0  01:53      1.71    0.50    1.00
  YS02001596YS02001600 CONDUIT    318.09     0  01:51      1.26    0.62    1.00
  YS02001600YS02001601 CONDUIT    319.07     0  02:25      1.13    0.55    1.00
  YS02001601YS02001602 CONDUIT    523.02     0  01:38      1.85    1.89    1.00
  YS02001602YS02001605 CONDUIT    523.02     0  01:38      1.85   11.07    1.00
  YS02001605YS02001607 CONDUIT    522.98     0  01:38      1.85    2.87    1.00
  YS02001607YS02001610 CONDUIT    528.67     0  01:38      0.67    0.50    1.00
  YS02001610YS02001613 CONDUIT    618.15     0  02:00      0.79    0.71    1.00
  YS02001613YS02001616 CONDUIT    618.45     0  02:00      0.79    0.53    1.00
  YS02001616YS02001619 CONDUIT    618.01     0  02:00      0.79    1.07    1.00
  YS02001619YS02001622 CONDUIT   1053.99     0  01:53      1.34    1.55    1.00
  YS02001622YS02001625 CONDUIT   1053.70     0  01:52      1.34    0.56    1.00
  YS02001625YS02001629 CONDUIT    928.25     0  01:41      1.19    0.44    1.00
  YS02001629YS02163301 CONDUIT    954.20     0  01:51      1.21    1.18    1.00
  YS02001633YS02163601 CONDUIT   1398.90     0  01:42      1.78    1.47    1.00
  YS02001641YS02001644 CONDUIT   1398.62     0  01:42      1.78    4.52    1.00
  YS02001644YS02001647 CONDUIT   1828.38     0  01:42      2.33    1.07    1.00
  YS02001647YS02001649 CONDUIT   1836.48     0  01:42      2.36    0.97    1.00
  YS02001649YS02001757 CONDUIT   2101.17     0  01:42      2.68    1.28    1.00
  YS02001652YS02001649 CONDUIT   1534.77     0  01:50      1.95    0.76    1.00
  YS02001655YS02001652 CONDUIT   1534.31     0  01:50      1.95    0.75    1.00
  YS02001658YS02001655 CONDUIT   1534.37     0  01:50      1.95    0.65    1.00
  YS02001661YS02001658 CONDUIT   1533.98     0  01:50      2.36    0.60    1.00
  YS02001664YS02001661 CONDUIT   1533.88     0  01:50      2.37    0.48    1.00
  YS02001745YS02001748 CONDUIT    974.71     0  01:50      2.23    0.38    1.00
  YS02001748YS02001751 CONDUIT    974.61     0  01:50      1.75    0.49    1.00
  YS02001751YS02001754 CONDUIT    975.21     0  01:49      1.47    0.47    1.00
  YS02001754YS02001757 CONDUIT    976.02     0  01:49      1.24    0.39    1.00
  YS02001757CaochengTiaoxuchi CONDUIT   3587.52     0  01:47      4.57    1.55    1.00
  YS02001759YS02001757 CONDUIT   1524.32     0  01:47      1.94    1.08    1.00
  YS02001762YS02001759 CONDUIT    802.27     0  01:44      1.02    0.92    1.00
  YS02001765YS02001762 CONDUIT    802.95     0  01:44      1.02    0.75    1.00
  YS02001767YS02001765 CONDUIT    803.43     0  01:44      1.02    1.01    1.00
  YS02001770YS02001767 CONDUIT    803.21     0  01:44      1.02    3.18    1.00
  YS02001774YS02001770 CONDUIT    851.85     0  01:53      1.08    0.54    1.00
  YS02001779YS02001774 CONDUIT    851.68     0  01:53      1.08    0.43    1.00
  YS02001783YS02001784 CONDUIT   1189.79     0  01:49      2.37    1.64    1.00
  YS02001784YS02001785 CONDUIT   1192.12     0  01:49      2.37    2.77    1.00
  YS02001786YS02001788 CONDUIT   1192.11     0  01:49      2.52    2.30    0.89
  YS02001788YS02001790 CONDUIT   1196.96     0  01:48      2.75    0.88    0.85
  YS02001790YS02001791 CONDUIT   1318.66     0  01:50      3.47    1.43    0.72
  YS02001791YS02001793 CONDUIT   1282.25     0  01:50      6.77    0.55    0.45
  YS02001793JiankangQianchi CONDUIT   1239.13     0  02:04      2.49    0.10    0.66
  YS02001882YS02001884 CONDUIT     56.57     0  01:40      0.18    0.06    1.00
  YS02001884YS02001887 CONDUIT     71.22     0  01:40      0.13    0.09    1.00
  YS02001887YS02001890 CONDUIT   1456.05     0  01:49      1.85    2.49    1.00
  YS02001890YS02001895 CONDUIT    518.73     0  01:48      0.66    0.24    1.00
  YS02001895YS02001898 CONDUIT    518.49     0  01:49      0.66    0.90    1.00
  YS02001898YS02001901 CONDUIT    518.05     0  01:53      0.66    0.33    1.00
  YS02001901YS02001904 CONDUIT    518.51     0  01:48      0.66    0.80    1.00
  YS02001904YS02001907 CONDUIT    518.61     0  01:48      0.66    0.18    1.00
  YS02001907YS02006553 CONDUIT    800.58     0  02:20      0.89    0.94    1.00
  YS02001910YS02001907 CONDUIT   1992.99     0  01:53      2.54    1.12    1.00
  YS02001915YS02001910 CONDUIT   1993.18     0  01:55      2.54    0.99    1.00
  YS02001918YS02001915 CONDUIT    823.17     0  01:51      1.05    0.45    1.00
  YS02001920YS02001918 CONDUIT    823.39     0  01:51      1.05    0.80    1.00
  YS02001923YS02001920 CONDUIT    820.38     0  01:51      1.04    0.37    1.00
  YS02001926YS02001923 CONDUIT    818.60     0  01:51      1.04    1.17    1.00
  YS02001929YS02001926 CONDUIT    819.34     0  01:51      1.12    0.39    1.00
  YS02006553YS02006556 CONDUIT    794.75     0  02:17      1.01    0.68    1.00
  YS02006556YS02006558 CONDUIT    795.67     0  02:17      1.01    0.63    1.00
  YS02006558YS02006561 CONDUIT   1189.80     0  01:49      4.21    2.63    1.00
  YS02006561YS02001783 CONDUIT   1189.18     0  01:49      2.37    0.62    1.00
  YS02163301YS02001633 CONDUIT    952.59     0  01:51      1.21    0.90    1.00
  YS02163601YS02164001 CONDUIT   1397.63     0  01:42      1.78    1.24    1.00
  YS02164001YS02001641 CONDUIT   1398.74     0  01:42      1.78    1.91    1.00
  CC-R1                PUMP       683.00     0  00:00              1.00
  CC-R2                PUMP       683.00     0  00:00              1.00
  CC-S1                PUMP       200.00     0  00:00              1.00
  CC-S2                PUMP       200.00     0  00:00              1.00
  JK-R1                PUMP      1000.00     0  00:00              1.00
  JK-R2                PUMP      1000.00     0  00:00              1.00
  JK-S                 PUMP       300.00     0  00:00              1.00
  
  
  ***************************
  Flow Classification Summary
  ***************************
  
  -------------------------------------------------------------------------------------
                      Adjusted    ---------- Fraction of Time in Flow Class ---------- 
                       /Actual         Up    Down  Sub   Sup   Up    Down  Norm  Inlet 
  Conduit               Length    Dry  Dry   Dry   Crit  Crit  Crit  Crit  Ltd   Ctrl  
  -------------------------------------------------------------------------------------
  1                       1.00   0.00  0.00  0.00  0.00  1.00  0.00  0.00  0.35  0.00
  WS02003060WS02003069    1.00   0.00  0.00  0.00  0.98  0.02  0.00  0.00  0.71  0.00
  WS02003066WSF200        1.00   0.08  0.00  0.00  0.00  0.92  0.00  0.00  0.79  0.00
  WS02003067WS02003066    1.00   0.07  0.01  0.00  0.93  0.00  0.00  0.00  0.00  0.00
  WS02003069WS02003072    1.00   0.00  0.00  0.00  0.99  0.01  0.00  0.00  0.74  0.00
  WS02003072WS02003073    1.00   0.00  0.00  0.00  0.00  0.00  0.00  1.00  0.00  0.00
  WS02004401WS02004402    1.00   0.02  0.00  0.00  0.98  0.00  0.00  0.00  0.00  0.00
  WS02004402WS02004403    1.00   0.02  0.00  0.00  0.97  0.00  0.00  0.00  0.00  0.00
  WS02004403WS02004404    1.00   0.00  0.03  0.00  0.97  0.00  0.00  0.00  0.00  0.00
  WS02004404WS02004405    1.00   0.00  0.00  0.00  1.00  0.00  0.00  0.00  0.01  0.00
  WS02004405WS02004406    1.00   0.00  0.00  0.00  1.00  0.00  0.00  0.00  0.00  0.00
  WS02004406WS02004407    1.00   0.00  0.04  0.00  0.96  0.00  0.00  0.00  0.00  0.00
  WS02004407WS02004409    1.00   0.04  0.00  0.00  0.95  0.01  0.00  0.00  0.95  0.00
  WS02004409WS02004410    1.00   0.04  0.00  0.00  0.96  0.00  0.00  0.00  0.00  0.00
  WS02004410WS02004411    1.00   0.04  0.00  0.00  0.96  0.00  0.00  0.00  0.00  0.00
  WS02004411WS02004412    1.00   0.04  0.00  0.00  0.96  0.00  0.00  0.00  0.00  0.00
  WS02004412WS02004413    1.00   0.04  0.00  0.00  0.95  0.00  0.00  0.00  0.01  0.00
  WS02004413WS02003067    1.00   0.05  0.02  0.00  0.00  0.00  0.93  0.00  0.00  0.00
  WS02006109WS02006110    1.00   0.00  0.01  0.00  0.98  0.00  0.01  0.00  0.00  0.00
  WS02006110WS02006113    1.00   0.01  0.01  0.00  0.98  0.00  0.00  0.00  0.00  0.00
  WS02006111WS02006112    1.00   0.02  0.00  0.00  0.98  0.00  0.00  0.00  0.98  0.00
  WS02006112WS02006115    1.00   0.02  0.00  0.00  0.97  0.00  0.00  0.00  0.00  0.00
  WS02006113WS02006111    1.00   0.02  0.00  0.00  0.00  0.98  0.00  0.00  0.11  0.00
  WS02006115WS02006116    1.00   0.02  0.00  0.00  0.97  0.00  0.00  0.01  0.00  0.00
  WS02006116WS02004401    1.00   0.02  0.00  0.00  0.98  0.00  0.00  0.00  0.00  0.00
  WS02006228WS02006109    1.00   0.00  0.00  0.00  1.00  0.00  0.00  0.00  0.00  0.00
  WS02006229WS02006228    1.00   0.00  0.00  0.00  0.99  0.00  0.00  0.01  0.00  0.00
  WS02006230WS02006229    1.00   0.00  0.00  0.00  0.99  0.00  0.00  0.01  0.03  0.00
  WS02006231WS02006230    1.00   0.00  0.00  0.00  0.26  0.00  0.73  0.00  0.00  0.00
  WS02006232WS02006231    1.00   0.00  0.00  0.00  0.99  0.00  0.01  0.00  0.00  0.00
  WS02006234WS02006232    1.00   0.00  0.00  0.00  1.00  0.00  0.00  0.00  0.04  0.00
  WS02006235WS02006234    1.00   0.00  0.00  0.00  0.93  0.00  0.07  0.00  0.00  0.00
  WS02006238WS02006235    1.00   0.00  0.00  0.00  1.00  0.00  0.00  0.00  0.00  0.00
  WS02006239WS02006238    1.00   0.00  0.00  0.00  1.00  0.00  0.00  0.00  0.17  0.00
  WS02006240WS02006239    1.00   0.00  0.00  0.00  0.65  0.00  0.00  0.35  0.03  0.00
  WS02006242WS02006240    1.00   0.00  0.00  0.00  0.99  0.00  0.01  0.00  0.00  0.00
  WS02006243WS02006242    1.00   0.00  0.00  0.00  0.99  0.00  0.00  0.01  0.63  0.00
  WS02006245WS02006243    1.00   0.00  0.00  0.00  0.77  0.00  0.00  0.23  0.00  0.00
  WS02006247WS02006245    1.00   0.00  0.00  0.00  0.95  0.00  0.00  0.04  0.00  0.00
  WS02006248WS02006247    1.00   0.00  0.00  0.00  0.98  0.00  0.00  0.02  0.52  0.00
  WS02006249WS02006248    1.00   0.00  0.00  0.00  0.41  0.00  0.59  0.00  0.00  0.00
  WS02006251WS02006249    1.00   0.00  0.00  0.00  0.99  0.01  0.00  0.00  0.59  0.00
  WS02006252WS02006251    1.00   0.00  0.44  0.00  0.13  0.00  0.43  0.00  0.00  0.00
  WS02006256WS02006235    1.00   0.00  0.00  0.00  0.98  0.02  0.00  0.00  0.00  0.00
  WSF200WS02003060        1.00   0.00  0.08  0.00  0.50  0.43  0.00  0.00  0.63  0.00
  YS02001580YS02001583    1.00   0.20  0.55  0.00  0.25  0.00  0.00  0.00  0.64  0.00
  YS02001583YS02001586    1.00   0.40  0.29  0.00  0.30  0.00  0.00  0.00  0.64  0.00
  YS02001586YS02001590    1.00   0.13  0.00  0.00  0.46  0.04  0.00  0.38  0.33  0.00
  YS02001590YS02001593    1.00   0.13  0.01  0.00  0.18  0.00  0.69  0.00  0.00  0.00
  YS02001593YS02001596    1.00   0.13  0.00  0.00  0.19  0.01  0.00  0.67  0.02  0.00
  YS02001596YS02001600    1.00   0.13  0.00  0.00  0.24  0.01  0.00  0.62  0.03  0.00
  YS02001600YS02001601    1.00   0.13  0.01  0.00  0.86  0.00  0.00  0.00  0.58  0.00
  YS02001601YS02001602    1.00   0.13  0.01  0.00  0.87  0.00  0.00  0.00  0.00  0.00
  YS02001602YS02001605    1.00   0.13  0.00  0.00  0.87  0.00  0.00  0.00  0.00  0.00
  YS02001605YS02001607    1.00   0.13  0.00  0.00  0.87  0.00  0.00  0.00  0.00  0.00
  YS02001607YS02001610    1.00   0.13  0.00  0.00  0.86  0.00  0.00  0.00  0.01  0.00
  YS02001610YS02001613    1.00   0.13  0.00  0.00  0.87  0.00  0.00  0.00  0.00  0.00
  YS02001613YS02001616    1.00   0.13  0.00  0.00  0.87  0.00  0.00  0.00  0.00  0.00
  YS02001616YS02001619    1.00   0.13  0.00  0.00  0.87  0.00  0.00  0.00  0.00  0.00
  YS02001619YS02001622    1.00   0.13  0.00  0.00  0.87  0.00  0.00  0.00  0.27  0.00
  YS02001622YS02001625    1.00   0.13  0.00  0.00  0.87  0.00  0.00  0.00  0.03  0.00
  YS02001625YS02001629    1.00   0.13  0.04  0.00  0.21  0.00  0.62  0.00  0.00  0.00
  YS02001629YS02163301    1.00   0.14  0.01  0.00  0.85  0.00  0.00  0.00  0.00  0.00
  YS02001633YS02163601    1.00   0.00  0.01  0.00  0.99  0.00  0.00  0.00  0.14  0.00
  YS02001641YS02001644    1.00   0.00  0.01  0.00  0.99  0.00  0.00  0.00  0.00  0.00
  YS02001644YS02001647    1.00   0.00  0.16  0.00  0.84  0.00  0.00  0.00  0.00  0.00
  YS02001647YS02001649    1.00   0.00  0.16  0.00  0.60  0.24  0.00  0.00  0.55  0.00
  YS02001649YS02001757    1.00   0.00  0.00  0.00  0.74  0.26  0.00  0.00  0.41  0.00
  YS02001652YS02001649    1.00   0.00  0.00  0.00  0.97  0.03  0.00  0.00  0.71  0.00
  YS02001655YS02001652    1.00   0.00  0.00  0.00  0.24  0.01  0.00  0.75  0.04  0.00
  YS02001658YS02001655    1.00   0.00  0.14  0.00  0.72  0.14  0.00  0.00  0.62  0.00
  YS02001661YS02001658    1.00   0.14  0.00  0.00  0.56  0.30  0.00  0.00  0.65  0.00
  YS02001664YS02001661    1.00   0.13  0.00  0.00  0.78  0.09  0.00  0.00  0.83  0.00
  YS02001745YS02001748    1.00   0.00  0.00  0.00  0.17  0.01  0.00  0.83  0.05  0.00
  YS02001748YS02001751    1.00   0.00  0.00  0.00  0.88  0.12  0.00  0.00  0.73  0.00
  YS02001751YS02001754    1.00   0.00  0.00  0.00  0.23  0.00  0.00  0.77  0.03  0.00
  YS02001754YS02001757    1.00   0.00  0.00  0.00  1.00  0.00  0.00  0.00  0.76  0.00
  YS02001757CaochengTiaoxuchi    1.00   0.00  0.00  0.00  0.96  0.04  0.00  0.00  0.73  0.00
  YS02001759YS02001757    1.00   0.00  0.00  0.00  0.98  0.02  0.00  0.00  0.59  0.00
  YS02001762YS02001759    1.00   0.00  0.00  0.00  1.00  0.00  0.00  0.00  0.03  0.00
  YS02001765YS02001762    1.00   0.00  0.00  0.00  1.00  0.00  0.00  0.00  0.69  0.00
  YS02001767YS02001765    1.00   0.00  0.00  0.00  1.00  0.00  0.00  0.00  0.00  0.00
  YS02001770YS02001767    1.00   0.00  0.00  0.00  1.00  0.00  0.00  0.00  0.00  0.00
  YS02001774YS02001770    1.00   0.00  0.13  0.00  0.71  0.00  0.16  0.00  0.02  0.00
  YS02001779YS02001774    1.00   0.00  0.00  0.00  1.00  0.00  0.00  0.00  0.73  0.00
  YS02001783YS02001784    1.00   0.00  0.16  0.00  0.84  0.00  0.00  0.00  0.55  0.00
  YS02001784YS02001785    1.00   0.00  0.00  0.00  1.00  0.00  0.00  0.00  0.15  0.00
  YS02001786YS02001788    1.00   0.00  0.00  0.00  0.80  0.20  0.00  0.00  0.00  0.00
  YS02001788YS02001790    1.00   0.00  0.00  0.00  0.22  0.78  0.00  0.00  0.78  0.00
  YS02001790YS02001791    1.00   0.00  0.00  0.00  0.01  0.99  0.00  0.00  0.16  0.00
  YS02001791YS02001793    1.00   0.00  0.00  0.00  0.00  1.00  0.00  0.00  0.02  0.00
  YS02001793JiankangQianchi    1.00   0.00  0.00  0.00  0.96  0.03  0.00  0.00  0.94  0.00
  YS02001882YS02001884    1.00   0.14  0.01  0.00  0.85  0.00  0.00  0.00  0.00  0.00
  YS02001884YS02001887    1.00   0.06  0.05  0.00  0.89  0.00  0.00  0.00  0.00  0.00
  YS02001887YS02001890    1.00   0.00  0.00  0.00  0.97  0.00  0.03  0.00  0.00  0.00
  YS02001890YS02001895    1.00   0.00  0.15  0.00  0.85  0.00  0.00  0.00  0.00  0.00
  YS02001895YS02001898    1.00   0.15  0.00  0.00  0.83  0.00  0.01  0.00  0.00  0.00
  YS02001898YS02001901    1.00   0.15  0.00  0.00  0.85  0.00  0.00  0.00  0.01  0.00
  YS02001901YS02001904    1.00   0.15  0.00  0.00  0.85  0.00  0.00  0.00  0.00  0.00
  YS02001904YS02001907    1.00   0.00  0.15  0.00  0.85  0.00  0.00  0.00  0.00  0.00
  YS02001907YS02006553    1.00   0.00  0.02  0.00  0.98  0.00  0.00  0.00  0.00  0.00
  YS02001910YS02001907    1.00   0.00  0.00  0.00  0.97  0.00  0.00  0.03  0.11  0.00
  YS02001915YS02001910    1.00   0.00  0.00  0.00  0.97  0.03  0.00  0.00  0.13  0.00
  YS02001918YS02001915    1.00   0.00  0.01  0.00  0.98  0.02  0.00  0.00  0.70  0.00
  YS02001920YS02001918    1.00   0.00  0.01  0.00  0.99  0.00  0.00  0.00  0.00  0.00
  YS02001923YS02001920    1.00   0.00  0.00  0.00  1.00  0.00  0.00  0.00  0.89  0.00
  YS02001926YS02001923    1.00   0.00  0.07  0.00  0.09  0.00  0.83  0.00  0.00  0.00
  YS02001929YS02001926    1.00   0.00  0.13  0.00  0.87  0.00  0.00  0.00  0.79  0.00
  YS02006553YS02006556    1.00   0.01  0.00  0.00  0.99  0.00  0.00  0.00  0.03  0.00
  YS02006556YS02006558    1.00   0.00  0.00  0.00  1.00  0.00  0.00  0.00  0.00  0.00
  YS02006558YS02006561    1.00   0.16  0.00  0.00  0.09  0.75  0.00  0.00  0.16  0.00
  YS02006561YS02001783    1.00   0.16  0.00  0.00  0.13  0.71  0.00  0.00  0.65  0.00
  YS02163301YS02001633    1.00   0.00  0.14  0.00  0.86  0.00  0.00  0.00  0.00  0.00
  YS02163601YS02164001    1.00   0.00  0.08  0.00  0.92  0.00  0.00  0.00  0.00  0.00
  YS02164001YS02001641    1.00   0.01  0.07  0.00  0.92  0.00  0.00  0.00  0.05  0.00
  
  
  *************************
  Conduit Surcharge Summary
  *************************
  
  ----------------------------------------------------------------------------
                                                           Hours        Hours 
                         --------- Hours Full --------   Above Full   Capacity
  Conduit                Both Ends  Upstream  Dnstream   Normal Flow   Limited
  ----------------------------------------------------------------------------
  WS02003072WS02003073        0.01      0.01      0.01      1.45         0.01
  WS02004403WS02004404        0.01      0.01      0.03      0.01         0.01
  WS02004404WS02004405        0.01      0.03      0.01      2.56         0.01
  WS02004405WS02004406        0.01      0.01      0.01      0.75         0.01
  WS02006109WS02006110        0.85      0.85      1.91      0.97         0.01
  WS02006110WS02006113        0.01      0.01      1.90      0.01         0.01
  WS02006111WS02006112        0.01      0.01      2.17      0.01         0.01
  WS02006112WS02006115        0.01      0.01      1.00      0.01         0.01
  WS02006228WS02006109        1.89      1.92      1.89      2.35         1.89
  WS02006229WS02006228        1.89      1.89      1.89      2.22         1.87
  WS02006230WS02006229        2.04      2.18      2.04      3.30         2.03
  WS02006231WS02006230        0.86      0.86      1.04      2.76         0.01
  WS02006232WS02006231        0.99      0.99      1.92      1.08         0.01
  WS02006234WS02006232        1.83      1.83      1.92      1.05         1.03
  WS02006235WS02006234        1.36      1.37      1.85      2.65         0.02
  WS02006238WS02006235        1.86      1.86      1.91      0.01         0.01
  WS02006239WS02006238        1.87      1.90      1.88      1.98         1.66
  WS02006240WS02006239        1.86      1.88      1.86      1.96         1.55
  WS02006242WS02006240        1.88      1.88      1.96      2.17         0.01
  WS02006243WS02006242        1.88      1.88      1.92      0.01         0.04
  WS02006245WS02006243        1.87      1.87      1.88      1.07         1.10
  WS02006247WS02006245        1.86      1.87      1.86      2.48         1.85
  WS02006248WS02006247        1.85      1.85      1.86      0.01         0.05
  WS02006249WS02006248        1.85      1.85      1.85      2.45         0.01
  WS02006251WS02006249        1.85      1.85      1.85      2.05         1.78
  WS02006252WS02006251        2.11      2.11      2.13      2.11         0.01
  WS02006256WS02006235        2.63      2.69      6.68      1.46         0.01
  YS02001580YS02001583        0.99      0.99      1.06      0.01         0.01
  YS02001583YS02001586        1.00      1.00      1.17      0.01         0.01
  YS02001586YS02001590        1.18      1.18      1.26      0.01         0.01
  YS02001590YS02001593        1.26      1.26      1.29      1.33         0.01
  YS02001593YS02001596        1.28      1.28      1.41      0.01         0.01
  YS02001596YS02001600        1.47      1.47      1.54      0.01         0.01
  YS02001600YS02001601        1.59      1.59      1.78      0.01         0.01
  YS02001601YS02001602        1.71      1.71      1.81      1.54         0.01
  YS02001602YS02001605        1.67      1.67      1.71      2.49         0.01
  YS02001605YS02001607        1.64      1.67      1.64      1.74         1.64
  YS02001607YS02001610        1.28      1.28      1.31      0.01         0.01
  YS02001610YS02001613        1.27      1.27      1.31      0.01         0.01
  YS02001613YS02001616        1.22      1.22      1.27      0.01         0.01
  YS02001616YS02001619        1.20      1.20      1.22      0.20         0.13
  YS02001619YS02001622        1.20      1.20      1.20      1.21         1.12
  YS02001622YS02001625        1.20      1.20      1.42      0.01         0.01
  YS02001625YS02001629        1.14      1.14      1.42      0.01         0.01
  YS02001629YS02163301        1.42      1.42      1.43      0.15         0.15
  YS02001633YS02163601        1.45      1.45      1.48      0.30         0.31
  YS02001641YS02001644        1.38      1.41      1.38      1.83         1.36
  YS02001644YS02001647        1.13      1.13      1.38      0.04         0.01
  YS02001647YS02001649        1.13      1.13      1.31      0.01         0.01
  YS02001649YS02001757        1.30      1.31      1.36      0.09         0.04
  YS02001652YS02001649        1.08      1.08      1.31      0.01         0.01
  YS02001655YS02001652        0.80      0.80      1.05      0.01         0.01
  YS02001658YS02001655        0.45      0.45      0.80      0.01         0.01
  YS02001661YS02001658        0.21      0.21      0.45      0.01         0.01
  YS02001664YS02001661        0.05      0.05      0.25      0.01         0.01
  YS02001745YS02001748        0.04      0.04      0.35      0.01         0.01
  YS02001748YS02001751        0.40      0.40      0.61      0.01         0.01
  YS02001751YS02001754        0.61      0.61      0.95      0.01         0.01
  YS02001754YS02001757        1.01      1.01      1.36      0.01         0.01
  YS02001757CaochengTiaoxuchi        1.28      1.36      1.78      0.56         0.43
  YS02001759YS02001757        1.28      1.28      1.36      0.14         0.15
  YS02001762YS02001759        1.24      1.24      1.28      0.01         0.02
  YS02001765YS02001762        1.18      1.18      1.24      0.01         0.01
  YS02001767YS02001765        1.14      1.14      1.18      0.01         0.02
  YS02001770YS02001767        1.14      1.14      1.14      0.75         0.71
  YS02001774YS02001770        1.10      1.10      1.22      0.01         0.01
  YS02001779YS02001774        0.92      0.92      1.22      0.01         0.01
  YS02001783YS02001784        0.78      0.81      0.78      0.99         0.78
  YS02001784YS02001785        0.64      0.78      0.64      1.34         0.64
  YS02001786YS02001788        0.01      0.64      0.01      1.13         0.01
  YS02001790YS02001791        0.01      0.01      0.01      0.76         0.01
  YS02001793JiankangQianchi        0.01      0.01      6.38      0.01         0.01
  YS02001882YS02001884        0.74      0.74      0.75      0.01         0.01
  YS02001884YS02001887        0.78      0.78      0.80      0.01         0.01
  YS02001887YS02001890        0.82      0.82      0.83      0.26         0.01
  YS02001890YS02001895        0.73      0.73      0.85      0.01         0.01
  YS02001895YS02001898        0.72      0.72      0.73      0.01         0.01
  YS02001898YS02001901        0.73      0.73      0.78      0.01         0.01
  YS02001901YS02001904        0.77      0.77      0.78      0.01         0.01
  YS02001904YS02001907        0.77      0.77      1.11      0.01         0.01
  YS02001907YS02006553        1.36      1.36      1.45      0.01         0.01
  YS02001910YS02001907        0.85      0.85      1.07      0.17         0.16
  YS02001915YS02001910        0.74      0.74      0.85      0.01         0.02
  YS02001918YS02001915        0.64      0.64      0.74      0.01         0.01
  YS02001920YS02001918        0.64      0.64      0.66      0.01         0.01
  YS02001923YS02001920        0.59      0.59      0.65      0.01         0.01
  YS02001926YS02001923        0.29      0.29      0.31      0.11         0.01
  YS02001929YS02001926        0.18      0.18      0.31      0.01         0.01
  YS02006553YS02006556        0.96      0.96      1.10      0.01         0.01
  YS02006556YS02006558        1.02      1.02      1.13      0.01         0.01
  YS02006558YS02006561        0.68      0.95      0.68      1.27         0.68
  YS02006561YS02001783        0.60      0.60      0.81      0.01         0.01
  YS02163301YS02001633        1.43      1.43      1.46      0.01         0.01
  YS02163601YS02164001        1.41      1.41      1.48      0.08         0.01
  YS02164001YS02001641        1.41      1.41      1.41      0.99         0.91
  
  
  ***************
  Pumping Summary
  ***************
  
  ---------------------------------------------------------------------------------------------------------
                                                  Min       Avg       Max     Total     Power    % Time Off
                        Percent   Number of      Flow      Flow      Flow    Volume     Usage    Pump Curve
  Pump                 Utilized   Start-Ups       LPS       LPS       LPS  10^6 ltr     Kw-hr    Low   High
  ---------------------------------------------------------------------------------------------------------
  CC-R1                   27.76          25      0.00    683.00    683.00     5.461    102.21    0.0   22.9
  CC-R2                   29.06          21      0.00    683.00    683.00     5.716    105.92    0.0   30.5
  CC-S1                   29.29          15      0.00    200.00    200.00     1.687      9.01    0.0    0.0
  CC-S2                   30.31          20      0.00    200.00    200.00     1.746      9.53    0.0    0.0
  JK-R1                    8.90          16      0.00   1000.00   1000.00     2.562     27.12    0.0    0.0
  JK-R2                    4.70          16      0.00   1000.00   1000.00     1.354     13.44    0.0    0.0
  JK-S                    17.62          40      0.00    300.00    300.00     1.522     24.28    0.0    0.0
  

  Analysis begun on:  Mon Dec 30 10:13:31 2024
  Analysis ended on:  Mon Dec 30 10:13:33 2024
  Total elapsed time: 00:00:02