
  EPA STORM WATER MANAGEMENT MODEL - VERSION 5.2 (Build 5.2.4)
  PYSWMM TOOLKIT API - VERSION v1.0 (2023-11-27)
  ------------------------------------------------------------

  WARNING 04: minimum elevation drop used for Conduit WS02004404WS02004405
  WARNING 03: negative offset ignored for Link YS02001904YS02001907
  
  ****************
  Analysis Options
  ****************
  Flow Units ............... LPS
  Process Models:
    Rainfall/Runoff ........ YES
    RDII ................... NO
    Snowmelt ............... NO
    Groundwater ............ NO
    Flow Routing ........... YES
    Ponding Allowed ........ NO
    Water Quality .......... NO
  Infiltration Method ...... HORTON
  Flow Routing Method ...... DYNWAVE
  Surcharge Method ......... EXTRAN
  Starting Date ............ 08/28/2015 08:00:00
  Ending Date .............. 08/28/2015 16:00:00
  Antecedent Dry Days ...... 8.0
  Report Time Step ......... 00:01:00
  Wet Time Step ............ 00:01:00
  Dry Time Step ............ 00:01:00
  Routing Time Step ........ 30.00 sec
  Variable Time Step ....... YES
  Maximum Trials ........... 8
  Number of Threads ........ 4
  Head Tolerance ........... 0.001500 m
  
  
  **************************        Volume         Depth
  Runoff Quantity Continuity     hectare-m            mm
  **************************     ---------       -------
  Total Precipitation ......         1.708        51.486
  Evaporation Loss .........         0.000         0.000
  Infiltration Loss ........         0.096         2.894
  Surface Runoff ...........         1.579        47.611
  Final Storage ............         0.033         0.993
  Continuity Error (%) .....        -0.024
  
  
  **************************        Volume        Volume
  Flow Routing Continuity        hectare-m      10^6 ltr
  **************************     ---------     ---------
  Dry Weather Inflow .......         0.025         0.251
  Wet Weather Inflow .......         1.579        15.795
  Groundwater Inflow .......         0.000         0.000
  RDII Inflow ..............         0.000         0.000
  External Inflow ..........         0.083         0.834
  External Outflow .........         1.396        13.963
  Flooding Loss ............         0.363         3.629
  Evaporation Loss .........         0.000         0.000
  Exfiltration Loss ........         0.000         0.000
  Initial Stored Volume ....         0.243         2.431
  Final Stored Volume ......         0.182         1.816
  Continuity Error (%) .....        -0.507
  
  
  *************************
  Highest Continuity Errors
  *************************
  Node YS02001583 (-7.76%)
  Node YS02001884 (5.11%)
  Node WS02006256 (-3.91%)
  Node YS02001774 (1.09%)
  
  
  ***************************
  Time-Step Critical Elements
  ***************************
  Link WS02006238WS02006235 (29.69%)
  Link WS02006252WS02006251 (25.54%)
  Link WS02004404WS02004405 (19.76%)
  Link WS02006235WS02006234 (5.16%)
  Link YS02001791YS02001793 (5.04%)
  
  
  ********************************
  Highest Flow Instability Indexes
  ********************************
  Link WS02006113WS02006111 (35)
  Link WS02006256WS02006235 (23)
  Link WS02004404WS02004405 (19)
  Link WS02006238WS02006235 (18)
  Link WS02004403WS02004404 (16)
  
  
  *********************************
  Most Frequent Nonconverging Nodes
  *********************************
  Node CC-1 (15.61%)
  Node CC-2 (15.61%)
  Node JK-1 (15.61%)
  Node JK-2 (15.61%)
  Node WSC (15.61%)
  
  
  *************************
  Routing Time Step Summary
  *************************
  Minimum Time Step           :     0.01 sec
  Average Time Step           :     2.67 sec
  Maximum Time Step           :     6.43 sec
  % of Time in Steady State   :     0.00
  Average Iterations per Step :     3.53
  % of Steps Not Converging   :    15.61
  Time Step Frequencies       :
     30.000 - 13.228 sec      :     0.00 %
     13.228 -  5.833 sec      :    13.73 %
      5.833 -  2.572 sec      :    27.77 %
      2.572 -  1.134 sec      :    26.69 %
      1.134 -  0.500 sec      :    31.81 %
  
  
  ***************************
  Subcatchment Runoff Summary
  ***************************
  
  ------------------------------------------------------------------------------------------------------------------------------
                            Total      Total      Total      Total     Imperv       Perv      Total       Total     Peak  Runoff
                           Precip      Runon       Evap      Infil     Runoff     Runoff     Runoff      Runoff   Runoff   Coeff
  Subcatchment                 mm         mm         mm         mm         mm         mm         mm    10^6 ltr      LPS
  ------------------------------------------------------------------------------------------------------------------------------
  sub60                     51.49       0.00       0.00       1.75      44.10       4.43      48.53        0.64   457.35   0.943
  sub61                     51.49       0.00       0.00       2.53      41.60       6.22      47.82        0.88   632.47   0.929
  sub62                     51.49       0.00       0.00       1.17      46.08       2.95      49.03        1.34   882.76   0.952
  sub63                     51.49       0.00       0.00       4.67      35.59      10.26      45.85        1.04   696.57   0.890
  sub64                     51.49       0.00       0.00       2.36      42.56       5.36      47.92        1.15   707.36   0.931
  sub65                     51.49       0.00       0.00       2.04      43.54       4.65      48.19        1.33   789.13   0.936
  sub66                     51.49       0.00       0.00       5.76      35.48       9.17      44.65        2.08  1001.09   0.867
  sub67                     51.49       0.00       0.00       1.13      46.12       2.99      49.12        0.91   692.25   0.954
  sub68                     51.49       0.00       0.00       2.10      43.09       5.11      48.20        1.33   907.60   0.936
  sub69                     51.49       0.00       0.00       1.85      43.65       5.87      49.53        1.83  1053.15   0.962
  sub70                     51.49       0.00       0.00       6.15      33.82      11.36      45.17        1.31   561.92   0.877
  sub71                     51.49       0.00       0.00       1.20      46.04       2.92      48.97        1.28   767.80   0.951
  sub72                     51.49       0.00       0.00       1.06      46.48       2.54      49.02        0.67   366.35   0.952
  
  
  ******************
  Node Depth Summary
  ******************
  
  ---------------------------------------------------------------------------------
                                 Average  Maximum  Maximum  Time of Max    Reported
                                   Depth    Depth      HGL   Occurrence   Max Depth
  Node                 Type       Meters   Meters   Meters  days hr:min      Meters
  ---------------------------------------------------------------------------------
  WS02003060           JUNCTION     0.21     0.38     5.32     0  02:33        0.38
  WS02003066           JUNCTION     0.18     0.30     5.85     0  02:33        0.30
  WS02003067           JUNCTION     0.47     0.70     6.02     0  02:32        0.70
  WS02003069           JUNCTION     0.23     0.43     5.01     0  02:34        0.43
  WS02003072           JUNCTION     0.29     0.50     4.87     0  02:34        0.50
  WS02003073           JUNCTION     0.16     0.30     4.36     0  02:34        0.30
  WS02004401           JUNCTION     0.55     0.88     6.88     0  02:28        0.88
  WS02004402           JUNCTION     0.58     0.90     6.86     0  02:28        0.90
  WS02004403           JUNCTION     0.61     0.92     6.85     0  02:29        0.92
  WS02004404           JUNCTION     0.68     1.05     6.90     0  02:28        1.00
  WS02004405           JUNCTION     0.67     0.97     6.82     0  02:25        0.97
  WS02004406           JUNCTION     0.69     0.96     6.79     0  02:25        0.96
  WS02004407           JUNCTION     0.16     0.30     6.61     0  02:28        0.30
  WS02004409           JUNCTION     0.35     0.67     6.44     0  02:31        0.67
  WS02004410           JUNCTION     0.37     0.68     6.40     0  02:31        0.68
  WS02004411           JUNCTION     0.39     0.69     6.37     0  02:32        0.69
  WS02004412           JUNCTION     0.42     0.70     6.34     0  02:32        0.70
  WS02004413           JUNCTION     0.58     0.86     6.33     0  02:32        0.86
  WS02006109           JUNCTION     0.61     1.19     7.80     0  02:11        0.98
  WS02006110           JUNCTION     0.61     1.34     7.92     0  02:16        0.94
  WS02006111           JUNCTION     0.16     0.29     6.99     0  02:42        0.29
  WS02006112           JUNCTION     0.70     1.09     6.98     0  02:30        1.07
  WS02006113           JUNCTION     0.24     0.46     7.35     0  02:42        0.46
  WS02006115           JUNCTION     0.44     0.78     6.91     0  02:28        0.77
  WS02006116           JUNCTION     0.52     0.86     6.90     0  02:29        0.86
  WS02006228           JUNCTION     0.60     1.31     7.96     0  02:11        1.03
  WS02006229           JUNCTION     0.57     1.36     8.05     0  02:11        1.04
  WS02006230           JUNCTION     0.56     1.64     8.39     0  02:11        1.17
  WS02006231           JUNCTION     0.38     1.24     8.36     0  02:11        0.93
  WS02006232           JUNCTION     0.51     1.76     8.79     0  02:11        1.76
  WS02006234           JUNCTION     0.43     1.96     9.12     0  02:11        1.96
  WS02006235           JUNCTION     0.47     1.90     9.06     0  02:11        1.90
  WS02006238           JUNCTION     0.50     1.91     9.05     0  02:16        1.90
  WS02006239           JUNCTION     0.46     1.88     9.08     0  02:16        1.67
  WS02006240           JUNCTION     0.42     1.74     9.04     0  02:16        1.47
  WS02006242           JUNCTION     0.48     1.55     8.82     0  02:16        1.52
  WS02006243           JUNCTION     0.40     1.41     8.83     0  02:16        1.36
  WS02006245           JUNCTION     0.40     1.32     8.80     0  02:16        1.28
  WS02006247           JUNCTION     0.42     1.26     8.76     0  02:16        1.23
  WS02006248           JUNCTION     0.39     1.10     8.69     0  02:11        1.10
  WS02006249           JUNCTION     0.42     1.09     8.69     0  02:03        1.09
  WS02006251           JUNCTION     0.41     1.41     9.08     0  02:03        1.13
  WS02006252           JUNCTION     0.29     1.50     9.74     0  00:00        0.75
  WS02006256           JUNCTION     0.99     2.35     9.28     0  00:00        2.35
  WSF200               JUNCTION     0.15     0.29     5.52     0  02:33        0.29
  YS02001580           JUNCTION     0.11     1.05     9.59     0  01:57        0.77
  YS02001583           JUNCTION     0.14     1.14     9.64     0  01:57        0.82
  YS02001586           JUNCTION     0.23     1.13     9.30     0  01:56        1.13
  YS02001590           JUNCTION     0.34     1.40     9.26     0  01:55        1.37
  YS02001593           JUNCTION     0.27     1.45     9.31     0  01:55        1.28
  YS02001596           JUNCTION     0.37     1.77     9.19     0  01:55        1.65
  YS02001600           JUNCTION     0.45     1.87     9.00     0  01:55        1.87
  YS02001601           JUNCTION     0.64     2.06     8.90     0  01:55        2.06
  YS02001602           JUNCTION     0.55     1.87     8.77     0  01:56        1.87
  YS02001605           JUNCTION     0.50     1.78     8.68     0  01:56        1.78
  YS02001607           JUNCTION     0.48     1.65     8.50     0  02:08        1.65
  YS02001610           JUNCTION     0.52     1.68     8.48     0  01:56        1.68
  YS02001613           JUNCTION     0.48     1.70     8.54     0  01:56        1.66
  YS02001616           JUNCTION     0.41     1.61     8.52     0  01:56        1.61
  YS02001619           JUNCTION     0.39     1.61     8.54     0  01:56        1.61
  YS02001622           JUNCTION     0.38     1.62     8.52     0  01:56        1.58
  YS02001625           JUNCTION     0.63     1.78     8.38     0  01:57        1.78
  YS02001629           JUNCTION     0.51     1.85     8.40     0  01:56        1.85
  YS02001633           JUNCTION     0.58     2.07     8.53     0  02:00        2.02
  YS02001641           JUNCTION     0.56     1.99     8.43     0  02:00        1.94
  YS02001644           JUNCTION     0.55     1.92     8.35     0  01:59        1.92
  YS02001647           JUNCTION     0.33     1.82     8.43     0  02:01        1.82
  YS02001649           JUNCTION     0.37     2.05     8.44     0  02:00        2.02
  YS02001652           JUNCTION     0.25     1.98     8.58     0  02:00        1.80
  YS02001655           JUNCTION     0.18     2.18     9.03     0  02:00        1.55
  YS02001658           JUNCTION     0.13     2.30     9.44     0  02:00        1.31
  YS02001661           JUNCTION     0.16     1.57     8.97     0  02:01        1.10
  YS02001664           JUNCTION     0.07     0.71     8.64     0  02:01        0.59
  YS02001745           JUNCTION     0.07     1.55     9.07     0  02:01        0.92
  YS02001748           JUNCTION     0.12     2.15     9.23     0  02:01        1.11
  YS02001751           JUNCTION     0.15     1.98     8.86     0  02:01        1.29
  YS02001754           JUNCTION     0.21     2.20     8.81     0  01:59        1.61
  YS02001757           JUNCTION     0.38     2.15     8.41     0  02:01        2.03
  YS02001759           JUNCTION     0.32     2.13     8.50     0  02:01        2.13
  YS02001762           JUNCTION     0.31     2.15     8.55     0  02:01        2.15
  YS02001765           JUNCTION     0.29     2.10     8.55     0  02:01        2.10
  YS02001767           JUNCTION     0.29     2.03     8.52     0  01:59        2.03
  YS02001770           JUNCTION     0.30     1.95     8.44     0  01:59        1.95
  YS02001774           JUNCTION     0.37     2.05     8.47     0  01:59        2.03
  YS02001779           JUNCTION     0.20     1.68     8.37     0  01:59        1.68
  YS02001783           JUNCTION     0.28     1.58     7.72     0  01:59        1.22
  YS02001784           JUNCTION     0.29     1.30     7.37     0  01:59        1.11
  YS02001786           JUNCTION     0.25     1.02     7.05     0  01:59        0.87
  YS02001788           JUNCTION     0.18     0.62     6.60     0  01:59        0.62
  YS02001790           JUNCTION     0.21     0.72     6.37     0  02:04        0.72
  YS02001791           JUNCTION     0.13     0.44     5.91     0  02:04        0.43
  YS02001793           JUNCTION     0.07     0.27     5.10     0  02:16        0.26
  YS02001882           JUNCTION     0.35     1.83     8.55     0  01:58        1.64
  YS02001884           JUNCTION     0.44     1.92     8.54     0  01:58        1.74
  YS02001887           JUNCTION     0.52     1.92     8.45     0  01:58        1.83
  YS02001890           JUNCTION     0.54     1.81     8.32     0  01:58        1.81
  YS02001895           JUNCTION     0.32     1.67     8.42     0  01:58        1.56
  YS02001898           JUNCTION     0.33     1.77     8.51     0  01:58        1.55
  YS02001901           JUNCTION     0.44     1.87     8.48     0  01:58        1.67
  YS02001904           JUNCTION     0.42     1.77     8.40     0  01:58        1.67
  YS02001907           JUNCTION     0.73     1.96     8.25     0  01:58        1.96
  YS02001910           JUNCTION     0.54     2.10     8.61     0  01:58        1.97
  YS02001915           JUNCTION     0.35     2.00     8.72     0  01:58        1.93
  YS02001918           JUNCTION     0.20     1.81     8.88     0  01:59        1.81
  YS02001920           JUNCTION     0.28     2.10     9.11     0  01:59        2.04
  YS02001923           JUNCTION     0.15     2.03     9.29     0  01:59        1.94
  YS02001926           JUNCTION     0.18     1.90     9.35     0  01:59        1.90
  YS02001929           JUNCTION     0.10     1.78     9.47     0  01:59        1.78
  YS02006553           JUNCTION     0.73     2.08     8.36     0  01:59        1.98
  YS02006556           JUNCTION     0.71     2.17     8.48     0  01:59        1.98
  YS02006558           JUNCTION     0.75     2.24     8.51     0  01:59        2.02
  YS02006561           JUNCTION     0.18     1.43     8.09     0  01:59        0.89
  YS02163301           JUNCTION     0.53     1.95     8.47     0  02:00        1.92
  YS02163601           JUNCTION     0.62     2.08     8.48     0  02:00        2.03
  YS02164001           JUNCTION     0.55     2.02     8.47     0  02:00        1.95
  CC-1                 OUTFALL      0.00     0.00     0.00     0  00:00        0.00
  CC-2                 OUTFALL      0.00     0.00     0.00     0  00:00        0.00
  JK-1                 OUTFALL      0.00     0.00     0.00     0  00:00        0.00
  JK-2                 OUTFALL      0.00     0.00     0.00     0  00:00        0.00
  WSC                  OUTFALL      0.16     0.30     0.97     0  02:34        0.30
  CC-storage           STORAGE      0.74     1.44     6.94     0  02:27        1.44
  JK-storage           STORAGE      1.61     4.22     5.02     0  02:16        4.09
  
  
  *******************
  Node Inflow Summary
  *******************
  
  -------------------------------------------------------------------------------------------------
                                  Maximum  Maximum                  Lateral       Total        Flow
                                  Lateral    Total  Time of Max      Inflow      Inflow     Balance
                                   Inflow   Inflow   Occurrence      Volume      Volume       Error
  Node                 Type           LPS      LPS  days hr:min    10^6 ltr    10^6 ltr     Percent
  -------------------------------------------------------------------------------------------------
  WS02003060           JUNCTION     16.53   554.67     0  02:33       0.476        4.27       0.054
  WS02003066           JUNCTION      0.00   537.82     0  02:32           0         3.8       0.038
  WS02003067           JUNCTION      0.00   537.78     0  02:32           0         3.8       0.110
  WS02003069           JUNCTION      0.32   554.55     0  02:33     0.00922        4.28       0.094
  WS02003072           JUNCTION      0.00   554.12     0  02:34           0        4.27       0.165
  WS02003073           JUNCTION      1.82   555.80     0  02:34      0.0524        4.32       0.132
  WS02004401           JUNCTION      0.00   541.19     0  02:52           0         3.9       0.268
  WS02004402           JUNCTION      0.00   542.66     0  02:29           0        3.89       0.271
  WS02004403           JUNCTION      0.00   541.53     0  02:28           0        3.88       0.263
  WS02004404           JUNCTION      0.16   558.05     0  02:27     0.00467        3.87       0.220
  WS02004405           JUNCTION      0.04   603.91     0  02:27      0.0011        3.87       0.271
  WS02004406           JUNCTION      0.00   547.92     0  02:25           0        3.86       0.549
  WS02004407           JUNCTION      0.00   539.63     0  02:25           0        3.84       0.031
  WS02004409           JUNCTION      0.00   538.73     0  02:28           0        3.83       0.071
  WS02004410           JUNCTION      0.00   538.66     0  02:31           0        3.83       0.118
  WS02004411           JUNCTION      0.00   538.27     0  02:31           0        3.83       0.149
  WS02004412           JUNCTION      0.00   538.25     0  02:32           0        3.82       0.198
  WS02004413           JUNCTION      0.00   538.12     0  02:32           0        3.81       0.361
  WS02006109           JUNCTION      1.23   579.26     0  02:11      0.0354        3.95       0.191
  WS02006110           JUNCTION      0.00   584.40     0  02:11           0        3.94       0.179
  WS02006111           JUNCTION      0.00   564.79     0  02:42           0        3.93       0.019
  WS02006112           JUNCTION      0.00   544.99     0  02:43           0        3.93       0.527
  WS02006113           JUNCTION      0.00   577.45     0  02:11           0        3.94       0.052
  WS02006115           JUNCTION      0.00   552.64     0  02:41           0        3.91       0.185
  WS02006116           JUNCTION      0.00   541.70     0  02:28           0        3.91       0.108
  WS02006228           JUNCTION      0.00   572.87     0  02:11           0        3.92       0.102
  WS02006229           JUNCTION      0.00   569.96     0  02:11           0        3.92       0.144
  WS02006230           JUNCTION     10.28   591.18     0  02:51       0.296        3.93       0.129
  WS02006231           JUNCTION      0.00   582.38     0  02:11           0        3.63      -0.004
  WS02006232           JUNCTION      0.00   579.20     0  02:11           0        3.64       0.231
  WS02006234           JUNCTION      0.00   567.88     0  02:40           0        3.63      -0.440
  WS02006235           JUNCTION      0.00   564.96     0  03:45           0        3.77       0.386
  WS02006238           JUNCTION      0.00   427.91     0  02:30           0        2.96      -0.236
  WS02006239           JUNCTION      0.00   426.94     0  02:30           0        2.86      -0.191
  WS02006240           JUNCTION      0.00   421.03     0  02:30           0        2.81      -0.055
  WS02006242           JUNCTION      0.00   420.78     0  02:30           0         2.8       0.013
  WS02006243           JUNCTION      0.00   422.05     0  02:30           0        2.78      -0.316
  WS02006245           JUNCTION      0.00   423.07     0  02:30           0         2.8       0.665
  WS02006247           JUNCTION      0.00   423.39     0  02:30           0         2.8       0.010
  WS02006248           JUNCTION      0.00   422.91     0  02:30           0         2.8       0.006
  WS02006249           JUNCTION      0.00   474.27     0  03:40           0        2.99       0.764
  WS02006251           JUNCTION      0.08   407.73     0  02:03     0.00222        2.99       0.034
  WS02006252           JUNCTION      0.00   400.00     0  00:00           0        2.98      -0.446
  WS02006256           JUNCTION      0.00   300.00     0  00:00           0        1.17      -3.767
  WSF200               JUNCTION      0.00   537.88     0  02:33           0        3.79       0.014
  YS02001580           JUNCTION      0.00   127.61     0  01:56           0     0.00449       2.708
  YS02001583           JUNCTION      0.00   214.79     0  01:57           0      0.0152      -7.201
  YS02001586           JUNCTION    561.92   561.92     0  02:04        1.31        1.32       0.107
  YS02001590           JUNCTION      0.00   318.17     0  02:11           0        1.13      -0.047
  YS02001593           JUNCTION      0.00   317.98     0  02:11           0        1.13       0.003
  YS02001596           JUNCTION      0.00   317.89     0  02:08           0        1.13      -0.007
  YS02001600           JUNCTION      0.00   317.92     0  02:01           0        1.13       0.005
  YS02001601           JUNCTION   1053.15  1370.73     0  02:03        1.83        2.96       0.018
  YS02001602           JUNCTION      0.00   540.60     0  01:56           0        2.01       0.018
  YS02001605           JUNCTION      0.00   540.62     0  01:56           0        1.93       0.030
  YS02001607           JUNCTION      0.00   540.53     0  01:56           0        1.93       0.096
  YS02001610           JUNCTION      0.00   546.64     0  01:56           0        1.98       0.106
  YS02001613           JUNCTION      0.00   550.24     0  01:56           0        1.66       0.093
  YS02001616           JUNCTION      0.00   546.42     0  01:56           0        1.66       0.025
  YS02001619           JUNCTION   1001.09  1001.09     0  02:04        2.08        3.69      -0.002
  YS02001622           JUNCTION      0.00   956.21     0  01:56           0        3.64      -0.001
  YS02001625           JUNCTION      0.00  1095.37     0  02:04           0        3.68       0.238
  YS02001629           JUNCTION      0.00   946.16     0  01:56           0        3.14       0.016
  YS02001633           JUNCTION    789.33  1431.13     0  01:58        1.33         4.4       0.079
  YS02001641           JUNCTION      0.00  1429.55     0  01:58           0        4.33       0.062
  YS02001644           JUNCTION    707.40  1885.47     0  01:58        1.15        5.48       0.059
  YS02001647           JUNCTION      0.00  1885.91     0  01:58           0        5.38       0.010
  YS02001649           JUNCTION      0.00  2195.35     0  01:58           0        6.43       0.006
  YS02001652           JUNCTION      0.00   892.18     0  02:02           0        1.05      -0.077
  YS02001655           JUNCTION      0.15   891.60     0  02:02     0.00443        1.05      -0.017
  YS02001658           JUNCTION      0.00   890.22     0  02:02           0        1.04      -0.149
  YS02001661           JUNCTION      0.00   841.34     0  02:02           0        1.04       0.009
  YS02001664           JUNCTION    696.57   696.57     0  02:02        1.04        1.04      -0.011
  YS02001745           JUNCTION    457.35   622.30     0  02:00       0.638       0.639       0.212
  YS02001748           JUNCTION      0.04   626.80     0  02:01      0.0013       0.642      -0.443
  YS02001751           JUNCTION      0.01   631.89     0  02:01    0.000317       0.651       0.146
  YS02001754           JUNCTION      0.26   632.87     0  02:01     0.00749       0.664      -0.300
  YS02001757           JUNCTION      0.00  3537.28     0  02:01           0        9.31       0.065
  YS02001759           JUNCTION    632.51  1467.89     0  02:01       0.879        2.22      -0.006
  YS02001762           JUNCTION      0.00   841.04     0  02:00           0        1.34       0.011
  YS02001765           JUNCTION      0.00   842.26     0  02:00           0        1.34       0.005
  YS02001767           JUNCTION      0.54   842.93     0  02:00      0.0154        1.34      -0.003
  YS02001770           JUNCTION    882.92   882.92     0  02:02        1.35        1.39      -0.018
  YS02001774           JUNCTION      0.00   477.86     0  01:59           0      0.0846       1.103
  YS02001779           JUNCTION      0.01   483.99     0  01:59    0.000144      0.0422      -1.139
  YS02001783           JUNCTION      0.00  1162.12     0  02:01           0        3.46       0.005
  YS02001784           JUNCTION      1.06  1163.78     0  02:01      0.0305        3.49       0.014
  YS02001786           JUNCTION      0.06  1163.60     0  02:01     0.00162        3.49       0.020
  YS02001788           JUNCTION      0.07  1164.69     0  02:01     0.00204         3.5       0.009
  YS02001790           JUNCTION      0.15  1175.08     0  01:59     0.00446         3.5       0.011
  YS02001791           JUNCTION      0.00  1286.04     0  02:05           0         3.5      -0.008
  YS02001793           JUNCTION      0.00  1233.52     0  02:08           0         3.5       0.007
  YS02001882           JUNCTION      0.00    58.89     0  01:57           0      0.0126       4.907
  YS02001884           JUNCTION      0.00   101.55     0  01:57           0      0.0482       5.388
  YS02001887           JUNCTION    692.70   694.65     0  02:01       0.927        0.96       0.456
  YS02001890           JUNCTION      0.00   695.56     0  02:01           0       0.919       0.543
  YS02001895           JUNCTION      0.00   517.25     0  02:04           0       0.873       0.175
  YS02001898           JUNCTION      0.00   516.93     0  02:04           0       0.871       0.022
  YS02001901           JUNCTION      0.00   517.10     0  02:04           0       0.874       0.369
  YS02001904           JUNCTION      0.00   516.61     0  02:03           0       0.878       0.308
  YS02001907           JUNCTION      0.00  1676.36     0  02:03           0         2.9       0.601
  YS02001910           JUNCTION      0.00  1161.31     0  02:03           0        2.03       0.341
  YS02001915           JUNCTION    767.82  1160.52     0  02:03        1.28        2.08       0.070
  YS02001918           JUNCTION      0.00   503.21     0  01:59           0       0.835       0.001
  YS02001920           JUNCTION      2.87   496.95     0  01:59      0.0827       0.816       0.106
  YS02001923           JUNCTION      0.04   534.65     0  01:58     0.00109       0.716      -0.074
  YS02001926           JUNCTION      0.05   896.40     0  01:59      0.0015       0.694      -0.085
  YS02001929           JUNCTION    366.35   710.77     0  01:59       0.674       0.679      -0.088
  YS02006553           JUNCTION      0.00   795.87     0  02:16           0        2.16       0.540
  YS02006556           JUNCTION      0.00   795.76     0  02:15           0        2.17       0.359
  YS02006558           JUNCTION    908.48  1165.83     0  01:59        1.35        3.49       0.100
  YS02006561           JUNCTION      0.00  1164.96     0  01:59           0        3.46      -0.002
  YS02163301           JUNCTION      0.00   934.45     0  01:58           0        3.13       0.046
  YS02163601           JUNCTION      0.11  1430.98     0  01:58     0.00317        4.33       0.113
  YS02164001           JUNCTION      0.00  1430.57     0  01:58           0        4.33       0.053
  CC-1                 OUTFALL       0.00   683.00     0  00:00           0         4.3       0.000
  CC-2                 OUTFALL       0.00   683.00     0  00:00           0        2.89       0.000
  JK-1                 OUTFALL       0.00  1000.00     0  00:00           0       0.955       0.000
  JK-2                 OUTFALL       0.00  1000.00     0  00:00           0        1.51       0.000
  WSC                  OUTFALL       0.00   555.67     0  02:34           0        4.31       0.000
  CC-storage           STORAGE       0.00  3539.67     0  02:01           0        11.5      -0.272
  JK-storage           STORAGE       0.00  1253.99     0  02:06           0        3.65      -0.458
  
  
  **********************
  Node Surcharge Summary
  **********************
  
  Surcharging occurs when water rises above the top of the highest conduit.
  ---------------------------------------------------------------------
                                               Max. Height   Min. Depth
                                   Hours       Above Crown    Below Rim
  Node                 Type      Surcharged         Meters       Meters
  ---------------------------------------------------------------------
  WS02004404           JUNCTION        0.02          0.046        2.734
  WS02006109           JUNCTION        1.41          0.365        1.455
  WS02006110           JUNCTION        0.54          0.427        1.423
  WS02006112           JUNCTION        0.64          0.095        1.585
  WS02006228           JUNCTION        1.40          0.483        1.717
  WS02006229           JUNCTION        1.41          0.557        1.893
  WS02006230           JUNCTION        0.56          0.561        1.009
  WS02006231           JUNCTION        0.65          0.527        1.003
  WS02006232           JUNCTION        1.47          1.056        0.424
  WS02006234           JUNCTION        0.90          1.240        0.000
  WS02006235           JUNCTION        1.38          1.191        0.099
  WS02006238           JUNCTION        1.42          1.189        0.241
  WS02006239           JUNCTION        1.39          1.135        0.155
  WS02006240           JUNCTION        1.40          1.033        0.357
  WS02006242           JUNCTION        1.49          0.820        0.000
  WS02006243           JUNCTION        1.40          0.704        0.066
  WS02006245           JUNCTION        1.40          0.608        0.242
  WS02006247           JUNCTION        1.41          0.553        0.207
  WS02006248           JUNCTION        1.38          0.380        0.000
  WS02006249           JUNCTION        1.40          0.390        0.000
  WS02006251           JUNCTION        0.70          0.375        0.805
  WS02006252           JUNCTION        1.84          1.100        0.000
  WS02006256           JUNCTION        6.84          2.050        0.000
  YS02001580           JUNCTION        0.47          0.450        0.000
  YS02001583           JUNCTION        0.47          0.500        0.000
  YS02001586           JUNCTION        0.59          0.510        0.000
  YS02001590           JUNCTION        0.66          0.750        0.000
  YS02001593           JUNCTION        0.66          0.830        0.010
  YS02001596           JUNCTION        0.76          1.037        0.033
  YS02001600           JUNCTION        0.89          1.190        0.000
  YS02001601           JUNCTION        1.28          1.440        0.000
  YS02001602           JUNCTION        1.14          1.270        0.000
  YS02001605           JUNCTION        1.08          1.180        0.000
  YS02001607           JUNCTION        0.62          0.648        0.032
  YS02001610           JUNCTION        0.64          0.680        0.000
  YS02001613           JUNCTION        0.61          0.697        0.003
  YS02001616           JUNCTION        0.57          0.610        0.000
  YS02001619           JUNCTION        0.56          0.610        0.000
  YS02001622           JUNCTION        0.55          0.620        0.000
  YS02001625           JUNCTION        0.72          0.780        0.000
  YS02001629           JUNCTION        0.50          0.470        0.000
  YS02001633           JUNCTION        0.73          1.052        0.008
  YS02001641           JUNCTION        0.66          0.994        0.106
  YS02001644           JUNCTION        0.62          0.920        0.000
  YS02001647           JUNCTION        0.44          0.819        0.081
  YS02001649           JUNCTION        0.53          1.050        0.000
  YS02001652           JUNCTION        0.36          0.950        0.180
  YS02001655           JUNCTION        0.22          1.181        0.019
  YS02001658           JUNCTION        0.10          1.300        0.000
  YS02001661           JUNCTION        0.01          0.497        0.893
  YS02001745           JUNCTION        0.01          0.549        0.801
  YS02001748           JUNCTION        0.01          1.071        0.119
  YS02001751           JUNCTION        0.13          0.980        0.220
  YS02001754           JUNCTION        0.24          1.150        0.000
  YS02001757           JUNCTION        0.58          1.154        0.056
  YS02001759           JUNCTION        0.48          1.134        0.076
  YS02001762           JUNCTION        0.45          1.150        0.000
  YS02001765           JUNCTION        0.41          1.100        0.000
  YS02001767           JUNCTION        0.39          1.030        0.000
  YS02001770           JUNCTION        0.37          0.920        0.000
  YS02001774           JUNCTION        0.43          1.050        0.000
  YS02001779           JUNCTION        0.24          0.680        0.000
  YS02001783           JUNCTION        0.44          0.778        0.822
  YS02001784           JUNCTION        0.42          0.503        0.987
  YS02001786           JUNCTION        0.33          0.219        1.211
  YS02001882           JUNCTION        0.39          0.830        0.000
  YS02001884           JUNCTION        0.40          0.859        0.011
  YS02001887           JUNCTION        0.43          0.866        0.084
  YS02001890           JUNCTION        0.44          0.760        0.000
  YS02001895           JUNCTION        0.38          0.675        0.075
  YS02001898           JUNCTION        0.38          0.740        0.000
  YS02001901           JUNCTION        0.42          0.870        0.000
  YS02001904           JUNCTION        0.41          0.766        0.084
  YS02001907           JUNCTION        0.62          0.950        0.000
  YS02001910           JUNCTION        0.47          1.100        0.000
  YS02001915           JUNCTION        0.39          1.000        0.000
  YS02001918           JUNCTION        0.31          0.810        0.000
  YS02001920           JUNCTION        0.33          1.103        0.037
  YS02001923           JUNCTION        0.02          0.820        0.000
  YS02001926           JUNCTION        0.04          0.900        0.000
  YS02001929           JUNCTION        0.01          0.780        0.000
  YS02006553           JUNCTION        0.64          1.076        0.114
  YS02006556           JUNCTION        0.55          1.134        0.216
  YS02006558           JUNCTION        0.53          1.143        0.257
  YS02006561           JUNCTION        0.28          0.632        0.518
  YS02163301           JUNCTION        0.72          0.949        0.081
  YS02163601           JUNCTION        0.75          1.080        0.000
  YS02164001           JUNCTION        0.67          1.016        0.084
  
  
  *********************
  Node Flooding Summary
  *********************
  
  Flooding refers to all water that overflows a node, whether it ponds or not.
  --------------------------------------------------------------------------
                                                             Total   Maximum
                                 Maximum   Time of Max       Flood    Ponded
                        Hours       Rate    Occurrence      Volume     Depth
  Node                 Flooded       LPS   days hr:min    10^6 ltr    Meters
  --------------------------------------------------------------------------
  WS02006234              0.01      2.50      0  02:11       0.000     0.000
  WS02006242              0.01     18.50      0  02:16       0.000     0.000
  WS02006248              0.01     17.73      0  02:11       0.000     0.000
  WS02006249              0.68    104.33      0  02:03       0.164     0.000
  WS02006252              0.01    245.63      0  00:00       0.000     0.000
  WS02006256              1.08    293.19      0  00:00       0.363     0.000
  YS02001580              0.01    104.76      0  01:57       0.000     0.000
  YS02001583              0.01    181.37      0  01:57       0.000     0.000
  YS02001586              0.37    244.50      0  02:04       0.174     0.000
  YS02001590              0.01     58.13      0  01:55       0.000     0.000
  YS02001600              0.01      2.70      0  01:55       0.000     0.000
  YS02001601              0.52    972.67      0  02:03       0.951     0.000
  YS02001602              0.42     61.98      0  02:14       0.083     0.000
  YS02001605              0.01      3.33      0  01:57       0.000     0.000
  YS02001610              0.36    482.11      0  02:05       0.368     0.000
  YS02001616              0.01     22.09      0  01:57       0.000     0.000
  YS02001619              0.01     79.09      0  01:56       0.000     0.000
  YS02001622              0.01    186.27      0  01:56       0.000     0.000
  YS02001625              0.32   1095.28      0  02:04       0.597     0.000
  YS02001629              0.07    252.23      0  01:56       0.030     0.000
  YS02001644              0.08    564.74      0  02:02       0.085     0.000
  YS02001649              0.01     45.96      0  02:01       0.000     0.000
  YS02001658              0.01    323.54      0  02:00       0.000     0.000
  YS02001754              0.01    350.16      0  01:59       0.000     0.000
  YS02001762              0.01      3.27      0  02:01       0.000     0.000
  YS02001765              0.01      3.43      0  02:01       0.000     0.000
  YS02001767              0.01    139.43      0  01:59       0.000     0.000
  YS02001770              0.01    181.10      0  01:59       0.001     0.000
  YS02001774              0.01     36.41      0  01:59       0.000     0.000
  YS02001779              0.07    433.62      0  01:59       0.025     0.000
  YS02001882              0.01     12.01      0  01:58       0.000     0.000
  YS02001890              0.11    181.40      0  02:01       0.041     0.000
  YS02001898              0.01     15.36      0  01:58       0.000     0.000
  YS02001901              0.01     12.23      0  01:58       0.000     0.000
  YS02001907              0.27   1387.66      0  02:03       0.738     0.000
  YS02001910              0.01     14.03      0  01:58       0.000     0.000
  YS02001915              0.01    191.43      0  01:58       0.000     0.000
  YS02001918              0.01    162.70      0  02:00       0.002     0.000
  YS02001923              0.01    136.18      0  01:59       0.000     0.000
  YS02001926              0.01    786.02      0  01:59       0.003     0.000
  YS02001929              0.01    430.13      0  01:59       0.003     0.000
  YS02163601              0.01      5.64      0  02:00       0.000     0.000
  
  
  **********************
  Storage Volume Summary
  **********************
  
  ------------------------------------------------------------------------------------------------
                         Average    Avg   Evap  Exfil     Maximum    Max    Time of Max    Maximum
                          Volume   Pcnt   Pcnt   Pcnt      Volume   Pcnt     Occurrence    Outflow
  Storage Unit           1000 m³   Full   Loss   Loss     1000 m³   Full    days hr:min        LPS
  ------------------------------------------------------------------------------------------------
  CC-storage               2.052   32.0    0.0    0.0       4.018   62.7       0  02:27    1783.53
  JK-storage               0.081   27.8    0.0    0.0       0.212   72.8       0  02:16    2300.00
  
  
  ***********************
  Outfall Loading Summary
  ***********************
  
  -----------------------------------------------------------
                         Flow       Avg       Max       Total
                         Freq      Flow      Flow      Volume
  Outfall Node           Pcnt       LPS       LPS    10^6 ltr
  -----------------------------------------------------------
  CC-1                  38.06    683.00    683.00       4.297
  CC-2                  30.50    683.00    683.00       2.888
  JK-1                   6.65   1000.00   1000.00       0.955
  JK-2                   9.70   1000.00   1000.00       1.510
  WSC                   99.94    213.29    555.67       4.313
  -----------------------------------------------------------
  System                36.97   3579.29   3921.66      13.963
  
  
  ********************
  Link Flow Summary
  ********************
  
  -----------------------------------------------------------------------------
                                 Maximum  Time of Max   Maximum    Max/    Max/
                                  |Flow|   Occurrence   |Veloc|    Full    Full
  Link                 Type          LPS  days hr:min     m/sec    Flow   Depth
  -----------------------------------------------------------------------------
  1                    CONDUIT    555.67     0  02:34      2.83    0.19    0.30
  WS02003060WS02003069 CONDUIT    554.23     0  02:33      1.64    0.22    0.34
  WS02003066WSF200     CONDUIT    537.88     0  02:33      2.85    0.09    0.22
  WS02003067WS02003066 CONDUIT    537.82     0  02:32      1.21    0.17    0.42
  WS02003069WS02003072 CONDUIT    554.12     0  02:34      1.37    0.27    0.39
  WS02003072WS02003073 CONDUIT    553.97     0  02:34      1.44    1.20    0.37
  WS02004401WS02004402 CONDUIT    542.66     0  02:29      1.23    0.65    0.89
  WS02004402WS02004403 CONDUIT    541.53     0  02:28      1.27    0.78    0.91
  WS02004403WS02004404 CONDUIT    557.89     0  02:27      1.25    0.40    0.96
  WS02004404WS02004405 CONDUIT    603.87     0  02:27      1.48    5.92    0.98
  WS02004405WS02004406 CONDUIT    547.92     0  02:25      1.47    1.08    0.96
  WS02004406WS02004407 CONDUIT    539.63     0  02:25      1.04    0.24    0.63
  WS02004407WS02004409 CONDUIT    538.73     0  02:28      1.51    0.19    0.48
  WS02004409WS02004410 CONDUIT    538.66     0  02:31      0.98    0.70    0.68
  WS02004410WS02004411 CONDUIT    538.27     0  02:31      0.94    0.74    0.69
  WS02004411WS02004412 CONDUIT    538.25     0  02:32      0.96    0.76    0.69
  WS02004412WS02004413 CONDUIT    538.12     0  02:32      1.00    0.36    0.78
  WS02004413WS02003067 CONDUIT    537.78     0  02:32      1.11    0.23    0.59
  WS02006109WS02006110 CONDUIT    584.40     0  02:11      1.17    1.12    1.00
  WS02006110WS02006113 CONDUIT    577.45     0  02:11      1.40    0.53    0.79
  WS02006111WS02006112 CONDUIT    544.99     0  02:43      1.96    0.26    0.67
  WS02006112WS02006115 CONDUIT    552.64     0  02:41      0.81    0.33    0.88
  WS02006113WS02006111 CONDUIT    564.79     0  02:42      2.47    0.68    0.46
  WS02006115WS02006116 CONDUIT    541.70     0  02:28      1.27    0.70    0.79
  WS02006116WS02004401 CONDUIT    541.19     0  02:52      1.21    0.75    0.87
  WS02006228WS02006109 CONDUIT    578.03     0  02:11      1.15    2.53    1.00
  WS02006229WS02006228 CONDUIT    572.87     0  02:11      1.14    1.90    1.00
  WS02006230WS02006229 CONDUIT    569.96     0  02:11      1.48   12.68    1.00
  WS02006231WS02006230 CONDUIT    580.91     0  02:51      1.59    8.81    1.00
  WS02006232WS02006231 CONDUIT    582.38     0  02:11      1.52    1.22    1.00
  WS02006234WS02006232 CONDUIT    579.20     0  02:11      1.51    1.17    1.00
  WS02006235WS02006234 CONDUIT    567.88     0  02:40      1.48    5.99    1.00
  WS02006238WS02006235 CONDUIT    427.07     0  02:30      1.45    0.95    1.00
  WS02006239WS02006238 CONDUIT    427.91     0  02:30      1.13    1.37    1.00
  WS02006240WS02006239 CONDUIT    426.94     0  02:30      1.28    1.34    1.00
  WS02006242WS02006240 CONDUIT    421.03     0  02:30      1.16    1.67    1.00
  WS02006243WS02006242 CONDUIT    420.78     0  02:30      1.40    0.90    1.00
  WS02006245WS02006243 CONDUIT    422.05     0  02:30      1.45    1.25    1.00
  WS02006247WS02006245 CONDUIT    423.07     0  02:30      1.43    3.35    1.00
  WS02006248WS02006247 CONDUIT    423.39     0  02:30      1.44    0.92    1.00
  WS02006249WS02006248 CONDUIT    422.91     0  02:30      1.40    2.32    1.00
  WS02006251WS02006249 CONDUIT    474.27     0  03:40      2.10    1.37    1.00
  WS02006252WS02006251 CONDUIT    407.65     0  02:03     17.71    1.50    1.00
  WS02006256WS02006235 CONDUIT    288.91     0  00:00      4.23    3.06    1.00
  WSF200WS02003060     CONDUIT    538.14     0  02:33      2.06    0.12    0.28
  YS02001580YS02001583 CONDUIT    127.61     0  01:56      0.77    0.49    1.00
  YS02001583YS02001586 CONDUIT    181.22     0  01:57      0.79    0.27    1.00
  YS02001586YS02001590 CONDUIT    318.17     0  02:11      1.26    0.56    1.00
  YS02001590YS02001593 CONDUIT    317.98     0  02:11      1.12    2.00    1.00
  YS02001593YS02001596 CONDUIT    317.89     0  02:08      1.74    0.50    1.00
  YS02001596YS02001600 CONDUIT    317.92     0  02:01      1.22    0.62    1.00
  YS02001600YS02001601 CONDUIT    317.85     0  02:12      1.12    0.55    1.00
  YS02001601YS02001602 CONDUIT    540.60     0  01:56      1.91    1.95    1.00
  YS02001602YS02001605 CONDUIT    540.62     0  01:56      1.91   11.44    1.00
  YS02001605YS02001607 CONDUIT    540.53     0  01:56      1.91    2.96    1.00
  YS02001607YS02001610 CONDUIT    546.64     0  01:56      0.70    0.52    1.00
  YS02001610YS02001613 CONDUIT    550.24     0  01:56      0.70    0.63    1.00
  YS02001613YS02001616 CONDUIT    546.42     0  01:56      0.70    0.47    1.00
  YS02001616YS02001619 CONDUIT    531.92     0  01:56      0.68    0.92    1.00
  YS02001619YS02001622 CONDUIT    956.21     0  01:56      1.22    1.41    1.00
  YS02001622YS02001625 CONDUIT    946.11     0  01:56      1.20    0.50    1.00
  YS02001625YS02001629 CONDUIT    946.16     0  01:56      1.21    0.45    1.00
  YS02001629YS02163301 CONDUIT    934.45     0  01:58      1.19    1.15    1.00
  YS02001633YS02163601 CONDUIT   1430.87     0  01:58      1.82    1.50    1.00
  YS02001641YS02001644 CONDUIT   1429.74     0  01:58      1.82    4.62    1.00
  YS02001644YS02001647 CONDUIT   1885.91     0  01:58      2.42    1.11    1.00
  YS02001647YS02001649 CONDUIT   1891.92     0  01:58      2.41    1.00    1.00
  YS02001649YS02001757 CONDUIT   2181.45     0  01:58      2.78    1.32    1.00
  YS02001652YS02001649 CONDUIT    892.10     0  02:02      1.14    0.44    1.00
  YS02001655YS02001652 CONDUIT    892.18     0  02:02      1.36    0.43    1.00
  YS02001658YS02001655 CONDUIT    891.44     0  02:02      1.97    0.38    1.00
  YS02001661YS02001658 CONDUIT    890.22     0  02:02      2.41    0.35    1.00
  YS02001664YS02001661 CONDUIT    841.34     0  02:02      2.46    0.26    0.86
  YS02001745YS02001748 CONDUIT    626.76     0  02:01      2.33    0.24    1.00
  YS02001748YS02001751 CONDUIT    631.88     0  02:01      1.79    0.32    1.00
  YS02001751YS02001754 CONDUIT    632.61     0  02:01      1.50    0.30    1.00
  YS02001754YS02001757 CONDUIT    633.84     0  02:01      0.81    0.26    1.00
  YS02001757CaochengTiaoxuchi CONDUIT   3539.67     0  02:01      4.80    1.53    1.00
  YS02001759YS02001757 CONDUIT   1474.40     0  02:01      1.88    1.05    1.00
  YS02001762YS02001759 CONDUIT    847.35     0  02:01      1.08    0.98    1.00
  YS02001765YS02001762 CONDUIT    841.04     0  02:00      1.07    0.79    1.00
  YS02001767YS02001765 CONDUIT    842.26     0  02:00      1.07    1.06    1.00
  YS02001770YS02001767 CONDUIT    842.40     0  02:00      1.07    3.34    1.00
  YS02001774YS02001770 CONDUIT    477.86     0  01:59      0.61    0.31    1.00
  YS02001779YS02001774 CONDUIT    483.98     0  01:59      0.63    0.24    1.00
  YS02001783YS02001784 CONDUIT   1162.72     0  02:01      2.31    1.60    1.00
  YS02001784YS02001785 CONDUIT   1163.54     0  02:01      2.31    2.71    1.00
  YS02001786YS02001788 CONDUIT   1164.62     0  02:01      2.48    2.24    0.89
  YS02001788YS02001790 CONDUIT   1174.92     0  01:59      2.71    0.87    0.84
  YS02001790YS02001791 CONDUIT   1286.04     0  02:05      3.43    1.40    0.70
  YS02001791YS02001793 CONDUIT   1233.52     0  02:08      6.75    0.53    0.42
  YS02001793JiankangQianchi CONDUIT   1253.99     0  02:06      2.51    0.10    0.64
  YS02001882YS02001884 CONDUIT     58.89     0  01:57      0.11    0.07    1.00
  YS02001884YS02001887 CONDUIT    101.55     0  01:57      0.13    0.14    1.00
  YS02001887YS02001890 CONDUIT    695.56     0  02:01      0.89    1.19    1.00
  YS02001890YS02001895 CONDUIT    517.25     0  02:04      0.66    0.24    1.00
  YS02001895YS02001898 CONDUIT    516.93     0  02:04      0.66    0.90    1.00
  YS02001898YS02001901 CONDUIT    517.10     0  02:04      0.66    0.33    1.00
  YS02001901YS02001904 CONDUIT    516.61     0  02:03      0.66    0.80    1.00
  YS02001904YS02001907 CONDUIT    516.93     0  02:05      0.66    0.18    1.00
  YS02001907YS02006553 CONDUIT    795.87     0  02:16      0.88    0.94    1.00
  YS02001910YS02001907 CONDUIT   1160.77     0  02:03      1.48    0.65    1.00
  YS02001915YS02001910 CONDUIT   1161.31     0  02:03      1.48    0.58    1.00
  YS02001918YS02001915 CONDUIT    503.21     0  01:59      0.64    0.28    1.00
  YS02001920YS02001918 CONDUIT    494.08     0  01:59      0.64    0.48    1.00
  YS02001923YS02001920 CONDUIT    496.79     0  01:59      0.70    0.22    1.00
  YS02001926YS02001923 CONDUIT    591.93     0  01:59      0.99    0.85    1.00
  YS02001929YS02001926 CONDUIT    511.47     0  01:59      1.18    0.24    1.00
  YS02006553YS02006556 CONDUIT    795.76     0  02:15      1.01    0.68    1.00
  YS02006556YS02006558 CONDUIT    798.00     0  02:16      1.02    0.63    1.00
  YS02006558YS02006561 CONDUIT   1164.96     0  01:59      4.12    2.57    1.00
  YS02006561YS02001783 CONDUIT   1162.12     0  02:01      2.31    0.60    1.00
  YS02163301YS02001633 CONDUIT    934.21     0  01:58      1.19    0.88    1.00
  YS02163601YS02164001 CONDUIT   1430.57     0  01:58      1.82    1.27    1.00
  YS02164001YS02001641 CONDUIT   1429.55     0  01:58      1.82    1.95    1.00
  CC-R1                PUMP       683.00     0  00:00              1.00
  CC-R2                PUMP       683.00     0  00:00              1.00
  CC-S1                PUMP       200.00     0  00:00              1.00
  CC-S2                PUMP       200.00     0  00:00              1.00
  JK-R1                PUMP      1000.00     0  00:00              1.00
  JK-R2                PUMP      1000.00     0  00:00              1.00
  JK-S                 PUMP       300.00     0  00:00              1.00
  
  
  ***************************
  Flow Classification Summary
  ***************************
  
  -------------------------------------------------------------------------------------
                      Adjusted    ---------- Fraction of Time in Flow Class ---------- 
                       /Actual         Up    Down  Sub   Sup   Up    Down  Norm  Inlet 
  Conduit               Length    Dry  Dry   Dry   Crit  Crit  Crit  Crit  Ltd   Ctrl  
  -------------------------------------------------------------------------------------
  1                       1.00   0.00  0.00  0.00  0.00  1.00  0.00  0.00  0.37  0.00
  WS02003060WS02003069    1.00   0.00  0.00  0.00  0.97  0.03  0.00  0.00  0.75  0.00
  WS02003066WSF200        1.00   0.06  0.00  0.00  0.00  0.94  0.00  0.00  0.86  0.00
  WS02003067WS02003066    1.00   0.05  0.00  0.00  0.95  0.00  0.00  0.00  0.00  0.00
  WS02003069WS02003072    1.00   0.00  0.00  0.00  0.99  0.01  0.00  0.00  0.79  0.00
  WS02003072WS02003073    1.00   0.00  0.00  0.00  0.00  0.00  0.00  1.00  0.00  0.00
  WS02004401WS02004402    1.00   0.02  0.00  0.00  0.98  0.00  0.00  0.00  0.00  0.00
  WS02004402WS02004403    1.00   0.02  0.00  0.00  0.98  0.00  0.00  0.00  0.00  0.00
  WS02004403WS02004404    1.00   0.00  0.03  0.00  0.97  0.00  0.00  0.00  0.00  0.00
  WS02004404WS02004405    1.00   0.00  0.00  0.00  1.00  0.00  0.00  0.00  0.02  0.00
  WS02004405WS02004406    1.00   0.00  0.00  0.00  1.00  0.00  0.00  0.00  0.00  0.00
  WS02004406WS02004407    1.00   0.00  0.03  0.00  0.97  0.00  0.00  0.00  0.00  0.00
  WS02004407WS02004409    1.00   0.03  0.00  0.00  0.96  0.01  0.00  0.00  0.96  0.00
  WS02004409WS02004410    1.00   0.03  0.00  0.00  0.96  0.00  0.00  0.00  0.00  0.00
  WS02004410WS02004411    1.00   0.03  0.00  0.00  0.96  0.00  0.00  0.00  0.00  0.00
  WS02004411WS02004412    1.00   0.04  0.00  0.00  0.96  0.00  0.00  0.00  0.00  0.00
  WS02004412WS02004413    1.00   0.04  0.00  0.00  0.96  0.00  0.00  0.00  0.00  0.00
  WS02004413WS02003067    1.00   0.04  0.01  0.00  0.00  0.00  0.95  0.00  0.00  0.00
  WS02006109WS02006110    1.00   0.00  0.01  0.00  0.98  0.00  0.01  0.00  0.00  0.00
  WS02006110WS02006113    1.00   0.01  0.01  0.00  0.98  0.00  0.00  0.00  0.00  0.00
  WS02006111WS02006112    1.00   0.02  0.00  0.00  0.98  0.00  0.00  0.00  0.98  0.00
  WS02006112WS02006115    1.00   0.02  0.00  0.00  0.97  0.00  0.00  0.00  0.00  0.00
  WS02006113WS02006111    1.00   0.02  0.00  0.00  0.00  0.98  0.00  0.00  0.12  0.00
  WS02006115WS02006116    1.00   0.02  0.00  0.00  0.97  0.00  0.00  0.01  0.00  0.00
  WS02006116WS02004401    1.00   0.02  0.00  0.00  0.98  0.00  0.00  0.00  0.00  0.00
  WS02006228WS02006109    1.00   0.00  0.00  0.00  1.00  0.00  0.00  0.00  0.01  0.00
  WS02006229WS02006228    1.00   0.00  0.00  0.00  0.99  0.00  0.00  0.01  0.00  0.00
  WS02006230WS02006229    1.00   0.00  0.00  0.00  0.99  0.00  0.00  0.01  0.04  0.00
  WS02006231WS02006230    1.00   0.00  0.00  0.00  0.20  0.00  0.79  0.00  0.00  0.00
  WS02006232WS02006231    1.00   0.00  0.00  0.00  0.99  0.00  0.01  0.00  0.00  0.00
  WS02006234WS02006232    1.00   0.00  0.00  0.00  1.00  0.00  0.00  0.00  0.05  0.00
  WS02006235WS02006234    1.00   0.00  0.00  0.00  0.88  0.00  0.12  0.00  0.00  0.00
  WS02006238WS02006235    1.00   0.00  0.00  0.00  1.00  0.00  0.00  0.00  0.01  0.00
  WS02006239WS02006238    1.00   0.00  0.00  0.00  1.00  0.00  0.00  0.00  0.13  0.00
  WS02006240WS02006239    1.00   0.00  0.00  0.00  0.68  0.00  0.00  0.31  0.06  0.00
  WS02006242WS02006240    1.00   0.00  0.00  0.00  0.99  0.00  0.01  0.00  0.00  0.00
  WS02006243WS02006242    1.00   0.00  0.00  0.00  0.99  0.00  0.00  0.01  0.65  0.00
  WS02006245WS02006243    1.00   0.00  0.00  0.00  0.73  0.00  0.00  0.27  0.01  0.00
  WS02006247WS02006245    1.00   0.00  0.00  0.00  0.97  0.00  0.00  0.03  0.00  0.00
  WS02006248WS02006247    1.00   0.00  0.00  0.00  0.98  0.00  0.00  0.02  0.53  0.00
  WS02006249WS02006248    1.00   0.00  0.00  0.00  0.39  0.00  0.61  0.00  0.00  0.00
  WS02006251WS02006249    1.00   0.00  0.00  0.00  0.99  0.01  0.00  0.00  0.62  0.00
  WS02006252WS02006251    1.00   0.17  0.47  0.00  0.09  0.00  0.28  0.00  0.00  0.00
  WS02006256WS02006235    1.00   0.00  0.00  0.00  0.98  0.02  0.00  0.00  0.01  0.00
  WSF200WS02003060        1.00   0.00  0.06  0.00  0.46  0.49  0.00  0.00  0.70  0.00
  YS02001580YS02001583    1.00   0.24  0.59  0.00  0.17  0.00  0.00  0.00  0.68  0.00
  YS02001583YS02001586    1.00   0.43  0.34  0.00  0.23  0.00  0.00  0.00  0.68  0.00
  YS02001586YS02001590    1.00   0.13  0.00  0.00  0.41  0.04  0.00  0.42  0.36  0.00
  YS02001590YS02001593    1.00   0.13  0.01  0.00  0.09  0.00  0.77  0.00  0.00  0.00
  YS02001593YS02001596    1.00   0.14  0.00  0.00  0.11  0.01  0.00  0.74  0.02  0.00
  YS02001596YS02001600    1.00   0.14  0.00  0.00  0.18  0.01  0.00  0.67  0.05  0.00
  YS02001600YS02001601    1.00   0.13  0.01  0.00  0.86  0.00  0.00  0.00  0.62  0.00
  YS02001601YS02001602    1.00   0.13  0.01  0.00  0.86  0.00  0.00  0.00  0.00  0.00
  YS02001602YS02001605    1.00   0.14  0.00  0.00  0.86  0.00  0.00  0.00  0.00  0.00
  YS02001605YS02001607    1.00   0.14  0.00  0.00  0.86  0.00  0.00  0.00  0.00  0.00
  YS02001607YS02001610    1.00   0.13  0.01  0.00  0.86  0.00  0.00  0.00  0.02  0.00
  YS02001610YS02001613    1.00   0.13  0.00  0.00  0.87  0.00  0.00  0.00  0.01  0.00
  YS02001613YS02001616    1.00   0.13  0.00  0.00  0.87  0.00  0.00  0.00  0.01  0.00
  YS02001616YS02001619    1.00   0.13  0.00  0.00  0.87  0.00  0.00  0.00  0.00  0.00
  YS02001619YS02001622    1.00   0.13  0.00  0.00  0.87  0.00  0.00  0.00  0.29  0.00
  YS02001622YS02001625    1.00   0.13  0.00  0.00  0.87  0.00  0.00  0.00  0.05  0.00
  YS02001625YS02001629    1.00   0.13  0.06  0.00  0.14  0.00  0.68  0.00  0.00  0.00
  YS02001629YS02163301    1.00   0.16  0.01  0.00  0.83  0.00  0.00  0.00  0.00  0.00
  YS02001633YS02163601    1.00   0.00  0.01  0.00  0.99  0.00  0.00  0.00  0.15  0.00
  YS02001641YS02001644    1.00   0.00  0.01  0.00  0.99  0.00  0.00  0.00  0.00  0.00
  YS02001644YS02001647    1.00   0.00  0.18  0.00  0.82  0.00  0.00  0.00  0.00  0.00
  YS02001647YS02001649    1.00   0.00  0.18  0.00  0.54  0.28  0.00  0.00  0.58  0.00
  YS02001649YS02001757    1.00   0.00  0.00  0.00  0.71  0.29  0.00  0.00  0.46  0.00
  YS02001652YS02001649    1.00   0.00  0.00  0.00  0.96  0.04  0.00  0.00  0.76  0.00
  YS02001655YS02001652    1.00   0.00  0.00  0.00  0.16  0.01  0.00  0.83  0.06  0.00
  YS02001658YS02001655    1.00   0.00  0.14  0.00  0.63  0.23  0.00  0.00  0.72  0.00
  YS02001661YS02001658    1.00   0.14  0.00  0.00  0.47  0.39  0.00  0.00  0.72  0.00
  YS02001664YS02001661    1.00   0.13  0.00  0.00  0.76  0.11  0.00  0.00  0.86  0.00
  YS02001745YS02001748    1.00   0.00  0.00  0.00  0.06  0.01  0.00  0.93  0.05  0.00
  YS02001748YS02001751    1.00   0.00  0.00  0.00  0.80  0.20  0.00  0.00  0.80  0.00
  YS02001751YS02001754    1.00   0.00  0.00  0.00  0.14  0.00  0.00  0.85  0.05  0.00
  YS02001754YS02001757    1.00   0.00  0.00  0.00  1.00  0.00  0.00  0.00  0.84  0.00
  YS02001757CaochengTiaoxuchi    1.00   0.00  0.00  0.00  0.96  0.04  0.00  0.00  0.79  0.00
  YS02001759YS02001757    1.00   0.00  0.00  0.00  1.00  0.00  0.00  0.00  0.62  0.00
  YS02001762YS02001759    1.00   0.00  0.00  0.00  1.00  0.00  0.00  0.00  0.05  0.00
  YS02001765YS02001762    1.00   0.00  0.00  0.00  1.00  0.00  0.00  0.00  0.75  0.00
  YS02001767YS02001765    1.00   0.00  0.00  0.00  1.00  0.00  0.00  0.00  0.00  0.00
  YS02001770YS02001767    1.00   0.00  0.00  0.00  1.00  0.00  0.00  0.00  0.00  0.00
  YS02001774YS02001770    1.00   0.00  0.13  0.00  0.69  0.00  0.17  0.00  0.03  0.00
  YS02001779YS02001774    1.00   0.00  0.00  0.00  1.00  0.00  0.00  0.00  0.79  0.00
  YS02001783YS02001784    1.00   0.00  0.19  0.00  0.81  0.00  0.00  0.00  0.56  0.00
  YS02001784YS02001785    1.00   0.00  0.00  0.00  1.00  0.00  0.00  0.00  0.18  0.00
  YS02001786YS02001788    1.00   0.00  0.00  0.00  0.80  0.20  0.00  0.00  0.00  0.00
  YS02001788YS02001790    1.00   0.00  0.00  0.00  0.22  0.78  0.00  0.00  0.82  0.00
  YS02001790YS02001791    1.00   0.00  0.00  0.00  0.01  0.99  0.00  0.00  0.15  0.00
  YS02001791YS02001793    1.00   0.00  0.00  0.00  0.00  1.00  0.00  0.00  0.01  0.00
  YS02001793JiankangQianchi    1.00   0.00  0.00  0.00  0.97  0.03  0.00  0.00  0.97  0.00
  YS02001882YS02001884    1.00   0.16  0.01  0.00  0.83  0.00  0.00  0.00  0.00  0.00
  YS02001884YS02001887    1.00   0.06  0.05  0.00  0.89  0.00  0.00  0.00  0.00  0.00
  YS02001887YS02001890    1.00   0.00  0.00  0.00  0.97  0.00  0.03  0.00  0.00  0.00
  YS02001890YS02001895    1.00   0.00  0.17  0.00  0.83  0.00  0.00  0.00  0.00  0.00
  YS02001895YS02001898    1.00   0.17  0.00  0.00  0.81  0.00  0.02  0.00  0.00  0.00
  YS02001898YS02001901    1.00   0.17  0.00  0.00  0.82  0.00  0.00  0.00  0.01  0.00
  YS02001901YS02001904    1.00   0.17  0.00  0.00  0.83  0.00  0.00  0.00  0.00  0.00
  YS02001904YS02001907    1.00   0.00  0.17  0.00  0.83  0.00  0.00  0.00  0.00  0.00
  YS02001907YS02006553    1.00   0.00  0.02  0.00  0.98  0.00  0.00  0.00  0.00  0.00
  YS02001910YS02001907    1.00   0.00  0.00  0.00  0.97  0.00  0.00  0.03  0.12  0.00
  YS02001915YS02001910    1.00   0.00  0.00  0.00  0.96  0.04  0.00  0.00  0.17  0.00
  YS02001918YS02001915    1.00   0.00  0.01  0.00  0.98  0.02  0.00  0.00  0.77  0.00
  YS02001920YS02001918    1.00   0.00  0.01  0.00  0.99  0.00  0.00  0.00  0.00  0.00
  YS02001923YS02001920    1.00   0.00  0.00  0.00  1.00  0.00  0.00  0.00  0.94  0.00
  YS02001926YS02001923    1.00   0.00  0.07  0.00  0.05  0.00  0.88  0.00  0.00  0.00
  YS02001929YS02001926    1.00   0.00  0.13  0.00  0.87  0.00  0.00  0.00  0.83  0.00
  YS02006553YS02006556    1.00   0.01  0.00  0.00  0.99  0.00  0.00  0.00  0.03  0.00
  YS02006556YS02006558    1.00   0.00  0.00  0.00  1.00  0.00  0.00  0.00  0.00  0.00
  YS02006558YS02006561    1.00   0.19  0.00  0.00  0.05  0.77  0.00  0.00  0.19  0.00
  YS02006561YS02001783    1.00   0.19  0.00  0.00  0.07  0.74  0.00  0.00  0.70  0.00
  YS02163301YS02001633    1.00   0.00  0.16  0.00  0.84  0.00  0.00  0.00  0.00  0.00
  YS02163601YS02164001    1.00   0.00  0.08  0.00  0.92  0.00  0.00  0.00  0.00  0.00
  YS02164001YS02001641    1.00   0.01  0.07  0.00  0.92  0.00  0.00  0.00  0.06  0.00
  
  
  *************************
  Conduit Surcharge Summary
  *************************
  
  ----------------------------------------------------------------------------
                                                           Hours        Hours 
                         --------- Hours Full --------   Above Full   Capacity
  Conduit                Both Ends  Upstream  Dnstream   Normal Flow   Limited
  ----------------------------------------------------------------------------
  WS02003072WS02003073        0.01      0.01      0.01      0.81         0.01
  WS02004403WS02004404        0.01      0.01      0.01      0.01         0.01
  WS02004404WS02004405        0.01      0.01      0.01      2.53         0.01
  WS02004405WS02004406        0.01      0.01      0.01      0.50         0.01
  WS02006109WS02006110        0.54      0.54      1.47      0.64         0.01
  WS02006110WS02006113        0.01      0.01      1.44      0.01         0.01
  WS02006111WS02006112        0.01      0.01      1.71      0.01         0.01
  WS02006112WS02006115        0.01      0.01      0.64      0.01         0.01
  WS02006228WS02006109        1.41      1.47      1.41      1.98         1.41
  WS02006229WS02006228        1.40      1.41      1.40      1.78         1.39
  WS02006230WS02006229        1.57      1.71      1.57      3.25         1.57
  WS02006231WS02006230        0.56      0.56      0.69      2.78         0.01
  WS02006232WS02006231        0.65      0.65      1.47      0.70         0.01
  WS02006234WS02006232        1.36      1.36      1.47      0.69         0.69
  WS02006235WS02006234        0.89      0.90      1.38      2.53         0.01
  WS02006238WS02006235        1.40      1.40      1.48      0.01         0.01
  WS02006239WS02006238        1.42      1.46      1.42      1.63         1.28
  WS02006240WS02006239        1.39      1.41      1.39      1.62         1.21
  WS02006242WS02006240        1.40      1.40      1.55      1.79         0.01
  WS02006243WS02006242        1.41      1.41      1.49      0.01         0.03
  WS02006245WS02006243        1.40      1.41      1.40      1.05         0.85
  WS02006247WS02006245        1.40      1.42      1.40      2.20         1.39
  WS02006248WS02006247        1.39      1.39      1.41      0.01         0.03
  WS02006249WS02006248        1.38      1.38      1.40      2.16         0.01
  WS02006251WS02006249        1.40      1.41      1.40      1.73         1.33
  WS02006252WS02006251        1.81      1.81      1.83      1.81         0.01
  WS02006256WS02006235        2.56      2.64      6.71      1.14         0.01
  YS02001580YS02001583        0.47      0.47      0.51      0.01         0.01
  YS02001583YS02001586        0.47      0.47      0.59      0.01         0.01
  YS02001586YS02001590        0.60      0.60      0.66      0.01         0.01
  YS02001590YS02001593        0.66      0.66      0.67      0.70         0.01
  YS02001593YS02001596        0.67      0.67      0.76      0.01         0.01
  YS02001596YS02001600        0.80      0.80      0.89      0.01         0.01
  YS02001600YS02001601        0.95      0.95      1.28      0.01         0.01
  YS02001601YS02001602        1.14      1.14      1.32      0.91         0.01
  YS02001602YS02001605        1.08      1.08      1.14      2.10         0.01
  YS02001605YS02001607        1.03      1.08      1.03      1.23         1.03
  YS02001607YS02001610        0.62      0.62      0.64      0.01         0.01
  YS02001610YS02001613        0.61      0.61      0.64      0.01         0.01
  YS02001613YS02001616        0.57      0.57      0.61      0.01         0.01
  YS02001616YS02001619        0.56      0.56      0.57      0.01         0.01
  YS02001619YS02001622        0.55      0.56      0.55      0.69         0.54
  YS02001622YS02001625        0.55      0.55      0.72      0.01         0.01
  YS02001625YS02001629        0.50      0.50      0.72      0.01         0.01
  YS02001629YS02163301        0.71      0.71      0.72      0.23         0.22
  YS02001633YS02163601        0.73      0.73      0.75      0.40         0.39
  YS02001641YS02001644        0.62      0.66      0.62      1.35         0.62
  YS02001644YS02001647        0.44      0.44      0.62      0.04         0.01
  YS02001647YS02001649        0.44      0.44      0.53      0.01         0.01
  YS02001649YS02001757        0.52      0.53      0.58      0.32         0.27
  YS02001652YS02001649        0.38      0.38      0.53      0.01         0.01
  YS02001655YS02001652        0.22      0.22      0.36      0.01         0.01
  YS02001658YS02001655        0.10      0.10      0.22      0.01         0.01
  YS02001661YS02001658        0.01      0.01      0.10      0.01         0.01
  YS02001664YS02001661        0.01      0.01      0.02      0.01         0.01
  YS02001745YS02001748        0.01      0.01      0.01      0.01         0.01
  YS02001748YS02001751        0.08      0.08      0.13      0.01         0.01
  YS02001751YS02001754        0.13      0.13      0.24      0.01         0.01
  YS02001754YS02001757        0.29      0.29      0.58      0.01         0.01
  YS02001757CaochengTiaoxuchi        0.45      0.58      1.32      0.33         0.18
  YS02001759YS02001757        0.48      0.48      0.58      0.01         0.02
  YS02001762YS02001759        0.45      0.45      0.48      0.01         0.03
  YS02001765YS02001762        0.41      0.41      0.45      0.01         0.01
  YS02001767YS02001765        0.39      0.39      0.41      0.02         0.05
  YS02001770YS02001767        0.39      0.39      0.39      0.44         0.30
  YS02001774YS02001770        0.37      0.37      0.43      0.01         0.01
  YS02001779YS02001774        0.24      0.24      0.43      0.01         0.01
  YS02001783YS02001784        0.42      0.44      0.42      0.57         0.42
  YS02001784YS02001785        0.33      0.42      0.33      0.77         0.33
  YS02001786YS02001788        0.01      0.33      0.01      0.66         0.01
  YS02001790YS02001791        0.01      0.01      0.01      0.40         0.01
  YS02001793JiankangQianchi        0.01      0.01      6.08      0.01         0.01
  YS02001882YS02001884        0.39      0.39      0.40      0.01         0.01
  YS02001884YS02001887        0.42      0.42      0.43      0.01         0.01
  YS02001887YS02001890        0.44      0.44      0.45      0.07         0.01
  YS02001890YS02001895        0.38      0.38      0.47      0.01         0.01
  YS02001895YS02001898        0.38      0.38      0.38      0.01         0.01
  YS02001898YS02001901        0.39      0.39      0.42      0.01         0.01
  YS02001901YS02001904        0.41      0.41      0.42      0.01         0.01
  YS02001904YS02001907        0.41      0.41      0.64      0.01         0.01
  YS02001907YS02006553        0.78      0.78      0.84      0.01         0.01
  YS02001910YS02001907        0.47      0.47      0.62      0.01         0.01
  YS02001915YS02001910        0.39      0.39      0.47      0.01         0.01
  YS02001918YS02001915        0.31      0.31      0.39      0.01         0.01
  YS02001920YS02001918        0.31      0.31      0.33      0.01         0.01
  YS02001923YS02001920        0.27      0.27      0.33      0.01         0.01
  YS02001926YS02001923        0.02      0.02      0.04      0.01         0.01
  YS02001929YS02001926        0.01      0.01      0.04      0.01         0.01
  YS02006553YS02006556        0.55      0.55      0.64      0.01         0.01
  YS02006556YS02006558        0.60      0.60      0.65      0.01         0.01
  YS02006558YS02006561        0.35      0.53      0.35      0.73         0.35
  YS02006561YS02001783        0.28      0.28      0.44      0.01         0.01
  YS02163301YS02001633        0.72      0.72      0.75      0.01         0.01
  YS02163601YS02164001        0.67      0.67      0.75      0.08         0.01
  YS02164001YS02001641        0.66      0.67      0.66      0.67         0.55
  
  
  ***************
  Pumping Summary
  ***************
  
  ---------------------------------------------------------------------------------------------------------
                                                  Min       Avg       Max     Total     Power    % Time Off
                        Percent   Number of      Flow      Flow      Flow    Volume     Usage    Pump Curve
  Pump                 Utilized   Start-Ups       LPS       LPS       LPS  10^6 ltr     Kw-hr    Low   High
  ---------------------------------------------------------------------------------------------------------
  CC-R1                   21.95          26      0.00    683.00    683.00     4.318     77.26    0.0   41.2
  CC-R2                   14.73          25      0.00    683.00    683.00     2.898     51.45    0.0   46.3
  CC-S1                   26.51          19      0.00    200.00    200.00     1.527      9.43    0.0    0.0
  CC-S2                   25.30          21      0.00    200.00    200.00     1.457      9.03    0.0    0.0
  JK-R1                    3.32          12      0.00   1000.00   1000.00     0.955      9.97    0.0    0.0
  JK-R2                    5.24          14      0.00   1000.00   1000.00     1.509     14.36    0.0    0.0
  JK-S                    13.44          48      0.00    300.00    300.00     1.161     18.68    0.0    0.0
  

  Analysis begun on:  Mon Dec 30 10:14:00 2024
  Analysis ended on:  Mon Dec 30 10:14:01 2024
  Total elapsed time: 00:00:01