
  EPA STORM WATER MANAGEMENT MODEL - VERSION 5.2 (Build 5.2.4)
  PYSWMM TOOLKIT API - VERSION v1.0 (2023-11-27)
  ------------------------------------------------------------

  WARNING 04: minimum elevation drop used for Conduit WS02004404WS02004405
  WARNING 03: negative offset ignored for Link YS02001904YS02001907
  
  ****************
  Analysis Options
  ****************
  Flow Units ............... LPS
  Process Models:
    Rainfall/Runoff ........ YES
    RDII ................... NO
    Snowmelt ............... NO
    Groundwater ............ NO
    Flow Routing ........... YES
    Ponding Allowed ........ NO
    Water Quality .......... NO
  Infiltration Method ...... HORTON
  Flow Routing Method ...... DYNWAVE
  Surcharge Method ......... EXTRAN
  Starting Date ............ 08/28/2015 08:00:00
  Ending Date .............. 08/28/2015 16:00:00
  Antecedent Dry Days ...... 8.0
  Report Time Step ......... 00:01:00
  Wet Time Step ............ 00:01:00
  Dry Time Step ............ 00:01:00
  Routing Time Step ........ 30.00 sec
  Variable Time Step ....... YES
  Maximum Trials ........... 8
  Number of Threads ........ 4
  Head Tolerance ........... 0.001500 m
  
  
  **************************        Volume         Depth
  Runoff Quantity Continuity     hectare-m            mm
  **************************     ---------       -------
  Total Precipitation ......         2.741        82.621
  Evaporation Loss .........         0.000         0.000
  Infiltration Loss ........         0.105         3.165
  Surface Runoff ...........         2.603        78.476
  Final Storage ............         0.033         0.997
  Continuity Error (%) .....        -0.020
  
  
  **************************        Volume        Volume
  Flow Routing Continuity        hectare-m      10^6 ltr
  **************************     ---------     ---------
  Dry Weather Inflow .......         0.025         0.251
  Wet Weather Inflow .......         2.603        26.029
  Groundwater Inflow .......         0.000         0.000
  RDII Inflow ..............         0.000         0.000
  External Inflow ..........         0.083         0.834
  External Outflow .........         1.811        18.108
  Flooding Loss ............         0.970         9.703
  Evaporation Loss .........         0.000         0.000
  Exfiltration Loss ........         0.000         0.000
  Initial Stored Volume ....         0.243         2.431
  Final Stored Volume ......         0.182         1.818
  Continuity Error (%) .....        -0.284
  
  
  *************************
  Highest Continuity Errors
  *************************
  Node YS02001884 (4.97%)
  Node WS02006256 (-3.03%)
  Node YS02001583 (-2.69%)
  
  
  ***************************
  Time-Step Critical Elements
  ***************************
  Link WS02006252WS02006251 (26.76%)
  Link WS02006238WS02006235 (22.21%)
  Link WS02004404WS02004405 (17.26%)
  Link YS02001791YS02001793 (10.45%)
  Link WS02006235WS02006234 (5.56%)
  
  
  ********************************
  Highest Flow Instability Indexes
  ********************************
  Link WS02006113WS02006111 (40)
  Link WS02006238WS02006235 (25)
  Link WS02006256WS02006235 (24)
  Link WS02006252WS02006251 (20)
  Link WS02004404WS02004405 (19)
  
  
  *********************************
  Most Frequent Nonconverging Nodes
  *********************************
  Node CC-1 (17.01%)
  Node CC-2 (17.01%)
  Node JK-1 (17.01%)
  Node JK-2 (17.01%)
  Node WSC (17.01%)
  
  
  *************************
  Routing Time Step Summary
  *************************
  Minimum Time Step           :     0.00 sec
  Average Time Step           :     2.64 sec
  Maximum Time Step           :     6.43 sec
  % of Time in Steady State   :     0.00
  Average Iterations per Step :     3.69
  % of Steps Not Converging   :    17.01
  Time Step Frequencies       :
     30.000 - 13.228 sec      :     0.00 %
     13.228 -  5.833 sec      :    12.33 %
      5.833 -  2.572 sec      :    26.75 %
      2.572 -  1.134 sec      :    27.88 %
      1.134 -  0.500 sec      :    33.04 %
  
  
  ***************************
  Subcatchment Runoff Summary
  ***************************
  
  ------------------------------------------------------------------------------------------------------------------------------
                            Total      Total      Total      Total     Imperv       Perv      Total       Total     Peak  Runoff
                           Precip      Runon       Evap      Infil     Runoff     Runoff     Runoff      Runoff   Runoff   Coeff
  Subcatchment                 mm         mm         mm         mm         mm         mm         mm    10^6 ltr      LPS
  ------------------------------------------------------------------------------------------------------------------------------
  sub60                     82.62       0.00       0.00       1.87      71.51       8.05      79.56        1.05   712.26   0.963
  sub61                     82.62       0.00       0.00       2.72      67.45      11.33      78.78        1.45   991.45   0.954
  sub62                     82.62       0.00       0.00       1.24      74.73       5.37      80.09        2.19  1408.40   0.969
  sub63                     82.62       0.00       0.00       5.06      57.69      18.90      76.60        1.74  1146.87   0.927
  sub64                     82.62       0.00       0.00       2.55      69.02       9.84      78.87        1.89  1167.95   0.955
  sub65                     82.62       0.00       0.00       2.21      70.63       8.53      79.16        2.18  1308.51   0.958
  sub66                     82.62       0.00       0.00       6.33      57.58      17.63      75.21        3.51  1811.00   0.910
  sub67                     82.62       0.00       0.00       1.19      74.77       5.42      80.19        1.49  1051.60   0.971
  sub68                     82.62       0.00       0.00       2.25      69.87       9.32      79.19        2.18  1441.93   0.958
  sub69                     82.62       0.00       0.00       2.05      70.12      10.35      80.46        2.98  1739.09   0.974
  sub70                     82.62       0.00       0.00       6.91      54.36      21.18      75.54        2.18  1021.77   0.914
  sub71                     82.62       0.00       0.00       1.28      74.68       5.33      80.01        2.09  1258.86   0.968
  sub72                     82.62       0.00       0.00       1.14      75.43       4.64      80.07        1.10   617.45   0.969
  
  
  ******************
  Node Depth Summary
  ******************
  
  ---------------------------------------------------------------------------------
                                 Average  Maximum  Maximum  Time of Max    Reported
                                   Depth    Depth      HGL   Occurrence   Max Depth
  Node                 Type       Meters   Meters   Meters  days hr:min      Meters
  ---------------------------------------------------------------------------------
  WS02003060           JUNCTION     0.21     0.38     5.31     0  02:33        0.38
  WS02003066           JUNCTION     0.17     0.30     5.85     0  02:33        0.30
  WS02003067           JUNCTION     0.46     0.70     6.02     0  02:33        0.70
  WS02003069           JUNCTION     0.23     0.43     5.01     0  02:34        0.43
  WS02003072           JUNCTION     0.29     0.50     4.87     0  02:34        0.50
  WS02003073           JUNCTION     0.16     0.30     4.36     0  02:35        0.30
  WS02004401           JUNCTION     0.54     0.87     6.87     0  02:31        0.87
  WS02004402           JUNCTION     0.58     0.90     6.86     0  02:31        0.90
  WS02004403           JUNCTION     0.60     0.92     6.85     0  02:30        0.91
  WS02004404           JUNCTION     0.67     1.03     6.88     0  02:30        1.02
  WS02004405           JUNCTION     0.66     0.97     6.82     0  02:31        0.96
  WS02004406           JUNCTION     0.67     0.96     6.79     0  02:31        0.96
  WS02004407           JUNCTION     0.15     0.30     6.61     0  02:46        0.30
  WS02004409           JUNCTION     0.34     0.67     6.44     0  02:32        0.67
  WS02004410           JUNCTION     0.37     0.68     6.40     0  02:32        0.68
  WS02004411           JUNCTION     0.39     0.69     6.37     0  02:32        0.69
  WS02004412           JUNCTION     0.41     0.70     6.34     0  02:32        0.70
  WS02004413           JUNCTION     0.57     0.86     6.33     0  02:32        0.86
  WS02006109           JUNCTION     0.61     1.21     7.82     0  03:05        0.98
  WS02006110           JUNCTION     0.61     1.23     7.81     0  03:05        0.94
  WS02006111           JUNCTION     0.16     0.29     6.99     0  03:30        0.29
  WS02006112           JUNCTION     0.69     1.07     6.96     0  02:41        1.06
  WS02006113           JUNCTION     0.24     0.46     7.35     0  02:23        0.46
  WS02006115           JUNCTION     0.43     0.77     6.91     0  02:30        0.77
  WS02006116           JUNCTION     0.52     0.85     6.89     0  02:30        0.85
  WS02006228           JUNCTION     0.60     1.16     7.81     0  03:05        1.03
  WS02006229           JUNCTION     0.57     1.21     7.90     0  02:59        1.21
  WS02006230           JUNCTION     0.57     1.32     8.06     0  02:22        1.17
  WS02006231           JUNCTION     0.39     1.13     8.25     0  02:21        0.93
  WS02006232           JUNCTION     0.52     1.50     8.54     0  03:45        1.14
  WS02006234           JUNCTION     0.45     1.69     8.84     0  03:45        1.16
  WS02006235           JUNCTION     0.49     1.75     8.91     0  03:04        1.27
  WS02006238           JUNCTION     0.51     1.82     8.96     0  03:04        1.30
  WS02006239           JUNCTION     0.47     1.78     8.99     0  03:04        1.60
  WS02006240           JUNCTION     0.44     1.78     9.07     0  02:59        1.78
  WS02006242           JUNCTION     0.50     1.55     8.82     0  02:10        1.55
  WS02006243           JUNCTION     0.41     1.48     8.90     0  02:10        1.36
  WS02006245           JUNCTION     0.41     1.34     8.82     0  02:22        1.34
  WS02006247           JUNCTION     0.43     1.36     8.86     0  02:59        1.36
  WS02006248           JUNCTION     0.39     1.10     8.69     0  02:14        1.10
  WS02006249           JUNCTION     0.42     1.09     8.69     0  02:14        1.09
  WS02006251           JUNCTION     0.42     1.46     9.13     0  02:35        1.28
  WS02006252           JUNCTION     0.30     1.50     9.74     0  00:00        0.85
  WS02006256           JUNCTION     1.07     2.35     9.28     0  00:00        2.35
  WSF200               JUNCTION     0.15     0.29     5.52     0  02:33        0.29
  YS02001580           JUNCTION     0.15     1.05     9.59     0  02:05        0.84
  YS02001583           JUNCTION     0.18     1.14     9.64     0  02:05        0.82
  YS02001586           JUNCTION     0.29     1.13     9.30     0  02:05        1.13
  YS02001590           JUNCTION     0.41     1.39     9.25     0  02:30        1.39
  YS02001593           JUNCTION     0.34     1.31     9.17     0  02:05        1.29
  YS02001596           JUNCTION     0.46     1.67     9.09     0  02:05        1.66
  YS02001600           JUNCTION     0.56     1.87     9.00     0  02:05        1.87
  YS02001601           JUNCTION     0.76     2.06     8.90     0  02:04        2.06
  YS02001602           JUNCTION     0.65     1.87     8.77     0  02:10        1.87
  YS02001605           JUNCTION     0.60     1.78     8.68     0  02:23        1.78
  YS02001607           JUNCTION     0.57     1.68     8.53     0  02:48        1.68
  YS02001610           JUNCTION     0.61     1.68     8.48     0  02:11        1.68
  YS02001613           JUNCTION     0.57     1.68     8.52     0  02:23        1.68
  YS02001616           JUNCTION     0.50     1.61     8.52     0  02:22        1.61
  YS02001619           JUNCTION     0.48     1.61     8.54     0  02:21        1.61
  YS02001622           JUNCTION     0.47     1.59     8.49     0  02:26        1.59
  YS02001625           JUNCTION     0.71     1.78     8.38     0  02:11        1.78
  YS02001629           JUNCTION     0.61     1.85     8.40     0  02:13        1.85
  YS02001633           JUNCTION     0.68     2.08     8.53     0  02:23        2.08
  YS02001641           JUNCTION     0.65     2.10     8.54     0  02:48        2.10
  YS02001644           JUNCTION     0.63     1.92     8.35     0  02:16        1.92
  YS02001647           JUNCTION     0.42     1.79     8.40     0  02:23        1.79
  YS02001649           JUNCTION     0.47     2.05     8.44     0  02:23        2.05
  YS02001652           JUNCTION     0.35     1.89     8.48     0  02:23        1.89
  YS02001655           JUNCTION     0.26     1.69     8.54     0  02:23        1.69
  YS02001658           JUNCTION     0.19     1.47     8.61     0  02:23        1.47
  YS02001661           JUNCTION     0.20     1.27     8.67     0  02:24        1.25
  YS02001664           JUNCTION     0.08     0.76     8.69     0  02:24        0.74
  YS02001745           JUNCTION     0.10     0.93     8.45     0  02:24        0.93
  YS02001748           JUNCTION     0.18     1.35     8.43     0  02:24        1.35
  YS02001751           JUNCTION     0.22     1.52     8.40     0  02:23        1.52
  YS02001754           JUNCTION     0.30     1.77     8.38     0  02:23        1.77
  YS02001757           JUNCTION     0.49     2.14     8.40     0  02:23        2.14
  YS02001759           JUNCTION     0.43     2.21     8.57     0  02:23        2.21
  YS02001762           JUNCTION     0.42     2.15     8.55     0  02:23        2.15
  YS02001765           JUNCTION     0.39     2.10     8.55     0  02:23        2.10
  YS02001767           JUNCTION     0.39     2.03     8.52     0  02:48        2.03
  YS02001770           JUNCTION     0.40     1.95     8.44     0  02:23        1.95
  YS02001774           JUNCTION     0.46     2.05     8.47     0  02:23        2.05
  YS02001779           JUNCTION     0.29     1.68     8.37     0  02:13        1.68
  YS02001783           JUNCTION     0.33     1.31     7.45     0  02:23        1.27
  YS02001784           JUNCTION     0.34     1.17     7.24     0  02:23        1.12
  YS02001786           JUNCTION     0.28     0.91     6.94     0  02:23        0.87
  YS02001788           JUNCTION     0.21     0.63     6.60     0  02:23        0.62
  YS02001790           JUNCTION     0.24     0.73     6.38     0  02:23        0.72
  YS02001791           JUNCTION     0.15     0.45     5.92     0  02:24        0.43
  YS02001793           JUNCTION     0.08     0.29     5.12     0  02:16        0.27
  YS02001882           JUNCTION     0.41     1.80     8.52     0  02:23        1.80
  YS02001884           JUNCTION     0.49     1.93     8.55     0  02:23        1.93
  YS02001887           JUNCTION     0.57     2.00     8.54     0  02:23        2.00
  YS02001890           JUNCTION     0.59     1.81     8.32     0  02:12        1.81
  YS02001895           JUNCTION     0.37     1.59     8.34     0  02:23        1.59
  YS02001898           JUNCTION     0.38     1.58     8.31     0  02:23        1.58
  YS02001901           JUNCTION     0.49     1.71     8.32     0  02:23        1.71
  YS02001904           JUNCTION     0.47     1.64     8.27     0  02:29        1.64
  YS02001907           JUNCTION     0.77     1.96     8.25     0  02:12        1.96
  YS02001910           JUNCTION     0.59     1.99     8.50     0  02:25        1.99
  YS02001915           JUNCTION     0.41     2.00     8.72     0  02:23        2.00
  YS02001918           JUNCTION     0.24     1.68     8.75     0  02:13        1.66
  YS02001920           JUNCTION     0.32     1.81     8.82     0  02:13        1.75
  YS02001923           JUNCTION     0.19     1.61     8.87     0  02:13        1.51
  YS02001926           JUNCTION     0.21     1.47     8.91     0  02:13        1.36
  YS02001929           JUNCTION     0.13     1.37     9.06     0  02:13        1.13
  YS02006553           JUNCTION     0.78     2.09     8.37     0  02:23        2.09
  YS02006556           JUNCTION     0.75     2.21     8.52     0  02:23        2.21
  YS02006558           JUNCTION     0.79     2.29     8.56     0  02:23        2.29
  YS02006561           JUNCTION     0.21     1.00     7.66     0  02:23        0.90
  YS02163301           JUNCTION     0.63     2.03     8.55     0  02:48        2.03
  YS02163601           JUNCTION     0.71     2.08     8.48     0  02:48        2.08
  YS02164001           JUNCTION     0.64     2.10     8.56     0  02:48        2.10
  CC-1                 OUTFALL      0.00     0.00     0.00     0  00:00        0.00
  CC-2                 OUTFALL      0.00     0.00     0.00     0  00:00        0.00
  JK-1                 OUTFALL      0.00     0.00     0.00     0  00:00        0.00
  JK-2                 OUTFALL      0.00     0.00     0.00     0  00:00        0.00
  WSC                  OUTFALL      0.16     0.30     0.97     0  02:35        0.30
  CC-storage           STORAGE      0.83     1.76     7.26     0  02:50        1.76
  JK-storage           STORAGE      1.72     4.24     5.04     0  02:16        4.19
  
  
  *******************
  Node Inflow Summary
  *******************
  
  -------------------------------------------------------------------------------------------------
                                  Maximum  Maximum                  Lateral       Total        Flow
                                  Lateral    Total  Time of Max      Inflow      Inflow     Balance
                                   Inflow   Inflow   Occurrence      Volume      Volume       Error
  Node                 Type           LPS      LPS  days hr:min    10^6 ltr    10^6 ltr     Percent
  -------------------------------------------------------------------------------------------------
  WS02003060           JUNCTION     16.53   551.04     0  02:33       0.476        4.35       0.053
  WS02003066           JUNCTION      0.00   534.22     0  02:33           0        3.88       0.036
  WS02003067           JUNCTION      0.00   534.19     0  02:33           0        3.88       0.108
  WS02003069           JUNCTION      0.32   550.96     0  02:34     0.00922        4.36       0.091
  WS02003072           JUNCTION      0.00   550.60     0  02:34           0        4.35       0.161
  WS02003073           JUNCTION      1.82   552.26     0  02:34      0.0524         4.4       0.130
  WS02004401           JUNCTION      0.00   536.49     0  02:23           0        3.98       0.261
  WS02004402           JUNCTION      0.00   536.36     0  02:29           0        3.97       0.264
  WS02004403           JUNCTION      0.00   537.32     0  02:45           0        3.96       0.257
  WS02004404           JUNCTION      0.16   558.35     0  02:30     0.00467        3.96       0.201
  WS02004405           JUNCTION      0.04   603.23     0  02:31      0.0011        3.95       0.269
  WS02004406           JUNCTION      0.00   543.97     0  02:31           0        3.94       0.534
  WS02004407           JUNCTION      0.00   537.35     0  02:31           0        3.92       0.031
  WS02004409           JUNCTION      0.00   536.62     0  02:46           0        3.92       0.069
  WS02004410           JUNCTION      0.00   535.80     0  02:46           0        3.91       0.114
  WS02004411           JUNCTION      0.00   534.92     0  02:32           0        3.91       0.145
  WS02004412           JUNCTION      0.00   534.61     0  02:32           0         3.9       0.193
  WS02004413           JUNCTION      0.00   534.57     0  02:32           0         3.9       0.348
  WS02006109           JUNCTION      1.23   558.93     0  03:05      0.0354        4.03       0.160
  WS02006110           JUNCTION      0.00   558.94     0  03:05           0        4.02       0.177
  WS02006111           JUNCTION      0.00   563.00     0  02:24           0        4.01       0.027
  WS02006112           JUNCTION      0.00   544.87     0  03:28           0        4.01       0.462
  WS02006113           JUNCTION      0.00   566.53     0  03:05           0        4.02       0.046
  WS02006115           JUNCTION      0.00   549.80     0  03:06           0        3.99       0.174
  WS02006116           JUNCTION      0.00   539.20     0  03:30           0        3.99       0.129
  WS02006228           JUNCTION      0.00   557.32     0  03:05           0           4       0.095
  WS02006229           JUNCTION      0.00   556.53     0  03:05           0           4       0.130
  WS02006230           JUNCTION     10.28   586.21     0  02:21       0.296        4.01       0.158
  WS02006231           JUNCTION      0.00   582.36     0  02:21           0        3.71       0.007
  WS02006232           JUNCTION      0.00   581.40     0  02:21           0        3.72       0.177
  WS02006234           JUNCTION      0.00   575.78     0  02:21           0         3.7      -0.414
  WS02006235           JUNCTION      0.00   566.41     0  02:21           0        3.84       0.441
  WS02006238           JUNCTION      0.00   423.55     0  02:45           0        2.92      -0.184
  WS02006239           JUNCTION      0.00   422.23     0  02:30           0        2.83      -0.178
  WS02006240           JUNCTION      0.00   421.15     0  03:00           0        2.79      -0.093
  WS02006242           JUNCTION      0.00   420.92     0  03:00           0        2.78      -0.001
  WS02006243           JUNCTION      0.00   421.14     0  03:00           0        2.77      -0.132
  WS02006245           JUNCTION      0.00   420.08     0  03:00           0        2.78       0.668
  WS02006247           JUNCTION      0.00   419.35     0  03:00           0        2.78      -0.022
  WS02006248           JUNCTION      0.00   420.71     0  02:30           0        2.78       0.032
  WS02006249           JUNCTION      0.00   468.84     0  01:40           0        2.96       0.810
  WS02006251           JUNCTION      0.08   408.87     0  02:14     0.00222        2.97       0.061
  WS02006252           JUNCTION      0.00   400.00     0  00:00           0        2.95      -0.494
  WS02006256           JUNCTION      0.00   300.00     0  00:00           0        1.31      -2.939
  WSF200               JUNCTION      0.00   534.28     0  02:33           0        3.88       0.013
  YS02001580           JUNCTION      0.00    75.14     0  02:05           0     0.00417      -1.281
  YS02001583           JUNCTION      0.00   101.89     0  02:05           0       0.016      -2.622
  YS02001586           JUNCTION   1021.77  1021.77     0  02:26        2.18        2.19       0.039
  YS02001590           JUNCTION      0.00   320.74     0  02:48           0        1.54      -0.030
  YS02001593           JUNCTION      0.00   318.53     0  02:48           0        1.54       0.001
  YS02001596           JUNCTION      0.00   318.28     0  02:39           0        1.54      -0.006
  YS02001600           JUNCTION      0.00   318.13     0  02:21           0        1.54       0.027
  YS02001601           JUNCTION   1739.09  2056.49     0  02:25        2.98        4.52       0.018
  YS02001602           JUNCTION      0.00   493.69     0  02:05           0        2.56       0.016
  YS02001605           JUNCTION      0.00   493.59     0  02:05           0        2.42       0.029
  YS02001607           JUNCTION      0.00   493.39     0  02:05           0        2.42       0.084
  YS02001610           JUNCTION      0.00   953.94     0  02:28           0        2.88       0.085
  YS02001613           JUNCTION      0.00   617.44     0  02:28           0        2.28       0.073
  YS02001616           JUNCTION      0.00   617.19     0  02:28           0        2.28       0.023
  YS02001619           JUNCTION   1811.00  1811.00     0  02:26        3.51        5.32       0.001
  YS02001622           JUNCTION      0.00  1053.88     0  02:27           0        4.83       0.001
  YS02001625           JUNCTION      0.00  1504.62     0  02:28           0         5.2       0.194
  YS02001629           JUNCTION      0.00   928.67     0  02:11           0        3.89       0.016
  YS02001633           JUNCTION   1308.71  1332.75     0  02:11        2.19        5.65       0.063
  YS02001641           JUNCTION      0.00  1332.37     0  02:11           0        5.23       0.055
  YS02001644           JUNCTION   1167.99  1910.55     0  02:25         1.9        7.13       0.049
  YS02001647           JUNCTION      0.00  1699.39     0  02:12           0        6.22       0.008
  YS02001649           JUNCTION      0.00  1950.94     0  02:12           0        7.96       0.004
  YS02001652           JUNCTION      0.00  1157.41     0  02:25           0        1.74      -0.056
  YS02001655           JUNCTION      0.15  1158.14     0  02:25     0.00443        1.74      -0.012
  YS02001658           JUNCTION      0.00  1158.35     0  02:25           0        1.74      -0.010
  YS02001661           JUNCTION      0.00  1156.40     0  02:25           0        1.74       0.017
  YS02001664           JUNCTION   1146.87  1146.87     0  02:25        1.74        1.74      -0.009
  YS02001745           JUNCTION    712.27   712.27     0  02:25        1.05        1.05       0.129
  YS02001748           JUNCTION      0.04   714.47     0  02:25      0.0013        1.05      -0.218
  YS02001751           JUNCTION      0.01   715.34     0  02:25    0.000317        1.05       0.029
  YS02001754           JUNCTION      0.26   716.08     0  02:25     0.00749        1.06      -0.147
  YS02001757           JUNCTION      0.00  3224.47     0  02:19           0        12.2       0.035
  YS02001759           JUNCTION    991.49  1367.35     0  02:24        1.45        3.23      -0.009
  YS02001762           JUNCTION      0.00   744.78     0  02:18           0        1.78      -0.003
  YS02001765           JUNCTION      0.00   746.26     0  02:18           0        1.78      -0.002
  YS02001767           JUNCTION      0.54   744.90     0  02:18      0.0154        1.78       0.008
  YS02001770           JUNCTION   1408.55  1408.55     0  02:25         2.2        2.24      -0.009
  YS02001774           JUNCTION      0.00   850.02     0  02:26           0       0.474       0.172
  YS02001779           JUNCTION      0.01   849.88     0  02:26    0.000144       0.427      -0.013
  YS02001783           JUNCTION      0.00  1173.60     0  02:23           0         4.7       0.004
  YS02001784           JUNCTION      1.06  1173.76     0  02:23      0.0305        4.73       0.011
  YS02001786           JUNCTION      0.06  1175.37     0  02:23     0.00162        4.73       0.016
  YS02001788           JUNCTION      0.07  1177.16     0  02:23     0.00204        4.73       0.006
  YS02001790           JUNCTION      0.15  1180.98     0  02:23     0.00446        4.74       0.022
  YS02001791           JUNCTION      0.00  1303.49     0  02:23           0        4.74      -0.032
  YS02001793           JUNCTION      0.00  1254.30     0  02:20           0        4.74       0.005
  YS02001882           JUNCTION      0.00    31.05     0  02:09           0      0.0128       4.457
  YS02001884           JUNCTION      0.00    34.64     0  02:08           0      0.0488       5.235
  YS02001887           JUNCTION   1052.05  1052.05     0  02:25         1.5        1.54       0.285
  YS02001890           JUNCTION      0.00  1052.30     0  02:25           0         1.5       0.346
  YS02001895           JUNCTION      0.00   519.49     0  02:22           0        1.29       0.123
  YS02001898           JUNCTION      0.00   519.68     0  02:30           0        1.29       0.009
  YS02001901           JUNCTION      0.00   518.82     0  02:23           0        1.29       0.252
  YS02001904           JUNCTION      0.00   519.30     0  02:23           0         1.3       0.207
  YS02001907           JUNCTION      0.00  2678.19     0  02:25           0        4.62       0.393
  YS02001910           JUNCTION      0.00  1884.05     0  02:25           0        3.28       0.220
  YS02001915           JUNCTION   1258.88  1884.08     0  02:25        2.09         3.3       0.046
  YS02001918           JUNCTION      0.00   626.66     0  02:25           0        1.22       0.010
  YS02001920           JUNCTION      2.87   625.27     0  02:25      0.0827        1.21       0.075
  YS02001923           JUNCTION      0.04   620.68     0  02:26     0.00109        1.12      -0.019
  YS02001926           JUNCTION      0.05   619.88     0  02:26      0.0015        1.11       0.010
  YS02001929           JUNCTION    617.45   617.45     0  02:26         1.1         1.1      -0.030
  YS02006553           JUNCTION      0.00   803.89     0  02:41           0        2.65       0.451
  YS02006556           JUNCTION      0.00   804.12     0  02:41           0        2.66       0.303
  YS02006558           JUNCTION   1442.81  1442.81     0  02:25         2.2        4.78       0.075
  YS02006561           JUNCTION      0.00  1170.14     0  02:23           0         4.7      -0.005
  YS02163301           JUNCTION      0.00   928.31     0  02:10           0        3.89       0.044
  YS02163601           JUNCTION      0.11  1332.55     0  02:11     0.00317        5.23       0.097
  YS02164001           JUNCTION      0.00  1332.52     0  02:11           0        5.22       0.043
  CC-1                 OUTFALL       0.00   683.00     0  00:00           0        5.43       0.000
  CC-2                 OUTFALL       0.00   683.00     0  00:00           0        4.72       0.000
  JK-1                 OUTFALL       0.00  1000.00     0  00:00           0        1.68       0.000
  JK-2                 OUTFALL       0.00  1000.00     0  00:00           0        1.88       0.000
  WSC                  OUTFALL       0.00   552.00     0  02:35           0        4.39       0.000
  CC-storage           STORAGE       0.00  3222.94     0  02:19           0        14.5      -0.213
  JK-storage           STORAGE       0.00  1283.47     0  02:27           0        4.89      -0.350
  
  
  **********************
  Node Surcharge Summary
  **********************
  
  Surcharging occurs when water rises above the top of the highest conduit.
  ---------------------------------------------------------------------
                                               Max. Height   Min. Depth
                                   Hours       Above Crown    Below Rim
  Node                 Type      Surcharged         Meters       Meters
  ---------------------------------------------------------------------
  WS02004404           JUNCTION        0.01          0.033        2.747
  WS02006109           JUNCTION        1.60          0.386        1.434
  WS02006110           JUNCTION        0.52          0.319        1.531
  WS02006112           JUNCTION        0.67          0.074        1.606
  WS02006228           JUNCTION        1.60          0.327        1.873
  WS02006229           JUNCTION        1.61          0.408        2.042
  WS02006230           JUNCTION        0.55          0.238        1.332
  WS02006231           JUNCTION        0.64          0.419        1.111
  WS02006232           JUNCTION        1.62          0.798        0.682
  WS02006234           JUNCTION        1.03          0.965        0.275
  WS02006235           JUNCTION        1.58          1.040        0.250
  WS02006238           JUNCTION        1.60          1.101        0.329
  WS02006239           JUNCTION        1.60          1.043        0.247
  WS02006240           JUNCTION        1.58          1.065        0.325
  WS02006242           JUNCTION        1.61          0.820        0.000
  WS02006243           JUNCTION        1.53          0.770        0.000
  WS02006245           JUNCTION        1.53          0.629        0.221
  WS02006247           JUNCTION        1.53          0.652        0.108
  WS02006248           JUNCTION        1.52          0.380        0.000
  WS02006249           JUNCTION        1.52          0.390        0.000
  WS02006251           JUNCTION        0.69          0.431        0.749
  WS02006252           JUNCTION        1.80          1.100        0.000
  WS02006256           JUNCTION        7.17          2.050        0.000
  YS02001580           JUNCTION        0.79          0.450        0.000
  YS02001583           JUNCTION        0.79          0.500        0.000
  YS02001586           JUNCTION        0.92          0.510        0.000
  YS02001590           JUNCTION        1.00          0.743        0.007
  YS02001593           JUNCTION        1.00          0.690        0.150
  YS02001596           JUNCTION        1.12          0.944        0.126
  YS02001600           JUNCTION        1.28          1.190        0.000
  YS02001601           JUNCTION        1.64          1.440        0.000
  YS02001602           JUNCTION        1.52          1.270        0.000
  YS02001605           JUNCTION        1.47          1.180        0.000
  YS02001607           JUNCTION        0.98          0.680        0.000
  YS02001610           JUNCTION        1.01          0.680        0.000
  YS02001613           JUNCTION        0.98          0.680        0.020
  YS02001616           JUNCTION        0.94          0.610        0.000
  YS02001619           JUNCTION        0.92          0.610        0.000
  YS02001622           JUNCTION        0.92          0.587        0.033
  YS02001625           JUNCTION        1.10          0.780        0.000
  YS02001629           JUNCTION        0.85          0.470        0.000
  YS02001633           JUNCTION        1.13          1.060        0.000
  YS02001641           JUNCTION        1.06          1.100        0.000
  YS02001644           JUNCTION        1.02          0.920        0.000
  YS02001647           JUNCTION        0.79          0.795        0.105
  YS02001649           JUNCTION        0.89          1.050        0.000
  YS02001652           JUNCTION        0.71          0.856        0.274
  YS02001655           JUNCTION        0.55          0.689        0.511
  YS02001658           JUNCTION        0.33          0.466        0.834
  YS02001661           JUNCTION        0.11          0.197        1.193
  YS02001748           JUNCTION        0.25          0.269        0.921
  YS02001751           JUNCTION        0.42          0.521        0.679
  YS02001754           JUNCTION        0.62          0.722        0.428
  YS02001757           JUNCTION        0.95          1.140        0.070
  YS02001759           JUNCTION        0.86          1.210        0.000
  YS02001762           JUNCTION        0.83          1.150        0.000
  YS02001765           JUNCTION        0.80          1.100        0.000
  YS02001767           JUNCTION        0.77          1.030        0.000
  YS02001770           JUNCTION        0.74          0.920        0.000
  YS02001774           JUNCTION        0.82          1.050        0.000
  YS02001779           JUNCTION        0.61          0.680        0.000
  YS02001783           JUNCTION        0.67          0.507        1.093
  YS02001784           JUNCTION        0.64          0.374        1.116
  YS02001786           JUNCTION        0.52          0.115        1.315
  YS02001882           JUNCTION        0.61          0.801        0.029
  YS02001884           JUNCTION        0.62          0.870        0.000
  YS02001887           JUNCTION        0.66          0.950        0.000
  YS02001890           JUNCTION        0.67          0.760        0.000
  YS02001895           JUNCTION        0.59          0.594        0.156
  YS02001898           JUNCTION        0.58          0.548        0.192
  YS02001901           JUNCTION        0.64          0.715        0.155
  YS02001904           JUNCTION        0.63          0.642        0.208
  YS02001907           JUNCTION        0.97          0.950        0.000
  YS02001910           JUNCTION        0.71          0.989        0.111
  YS02001915           JUNCTION        0.60          1.000        0.000
  YS02001918           JUNCTION        0.51          0.680        0.130
  YS02001920           JUNCTION        0.52          0.811        0.329
  YS02001923           JUNCTION        0.18          0.397        0.423
  YS02001926           JUNCTION        0.21          0.466        0.434
  YS02001929           JUNCTION        0.07          0.369        0.411
  YS02006553           JUNCTION        0.99          1.090        0.100
  YS02006556           JUNCTION        0.82          1.167        0.183
  YS02006558           JUNCTION        0.80          1.195        0.205
  YS02006561           JUNCTION        0.47          0.196        0.954
  YS02163301           JUNCTION        1.11          1.030        0.000
  YS02163601           JUNCTION        1.16          1.080        0.000
  YS02164001           JUNCTION        1.06          1.100        0.000
  
  
  *********************
  Node Flooding Summary
  *********************
  
  Flooding refers to all water that overflows a node, whether it ponds or not.
  --------------------------------------------------------------------------
                                                             Total   Maximum
                                 Maximum   Time of Max       Flood    Ponded
                        Hours       Rate    Occurrence      Volume     Depth
  Node                 Flooded       LPS   days hr:min    10^6 ltr    Meters
  --------------------------------------------------------------------------
  WS02006242              0.01     75.36      0  02:10       0.000     0.000
  WS02006243              0.01     43.33      0  02:10       0.000     0.000
  WS02006248              0.01     43.51      0  02:14       0.000     0.000
  WS02006249              0.66    112.22      0  02:14       0.160     0.000
  WS02006252              0.01    245.63      0  00:00       0.000     0.000
  WS02006256              1.21    293.19      0  00:00       0.390     0.000
  YS02001580              0.01     63.90      0  02:05       0.000     0.000
  YS02001583              0.01     17.49      0  02:05       0.000     0.000
  YS02001586              0.62    704.33      0  02:26       0.645     0.000
  YS02001600              0.01      0.45      0  02:05       0.000     0.000
  YS02001601              0.84   1658.46      0  02:25       1.951     0.000
  YS02001602              0.69     62.26      0  02:30       0.143     0.000
  YS02001605              0.01      0.95      0  02:48       0.000     0.000
  YS02001607              0.01      0.56      0  02:48       0.000     0.000
  YS02001610              0.62    953.38      0  02:28       1.060     0.000
  YS02001616              0.03     14.71      0  02:30       0.000     0.000
  YS02001619              0.09    148.78      0  02:26       0.027     0.000
  YS02001625              0.59   1504.36      0  02:28       1.720     0.000
  YS02001629              0.20    219.33      0  02:25       0.060     0.000
  YS02001633              0.01      1.41      0  02:48       0.000     0.000
  YS02001641              0.01      1.93      0  02:48       0.000     0.000
  YS02001644              0.29   1910.38      0  02:25       0.903     0.000
  YS02001649              0.01      1.11      0  02:23       0.000     0.000
  YS02001762              0.01      0.81      0  02:23       0.000     0.000
  YS02001765              0.01      1.57      0  02:48       0.000     0.000
  YS02001767              0.01      0.92      0  02:48       0.000     0.000
  YS02001770              0.06    196.14      0  02:25       0.023     0.000
  YS02001774              0.01      1.17      0  02:23       0.000     0.000
  YS02001779              0.25    849.58      0  02:26       0.407     0.000
  YS02001884              0.01      0.71      0  02:23       0.000     0.000
  YS02001887              0.01      0.44      0  02:23       0.000     0.000
  YS02001890              0.24    534.55      0  02:25       0.199     0.000
  YS02001907              0.45   2678.14      0  02:25       2.018     0.000
  YS02001915              0.01      1.29      0  02:23       0.000     0.000
  YS02163301              0.01      1.44      0  02:48       0.000     0.000
  YS02163601              0.01      2.00      0  02:48       0.000     0.000
  YS02164001              0.01      4.30      0  02:48       0.000     0.000
  
  
  **********************
  Storage Volume Summary
  **********************
  
  ------------------------------------------------------------------------------------------------
                         Average    Avg   Evap  Exfil     Maximum    Max    Time of Max    Maximum
                          Volume   Pcnt   Pcnt   Pcnt      Volume   Pcnt     Occurrence    Outflow
  Storage Unit           1000 m³   Full   Loss   Loss     1000 m³   Full    days hr:min        LPS
  ------------------------------------------------------------------------------------------------
  CC-storage               2.307   36.0    0.0    0.0       4.913   76.7       0  02:50    1783.53
  JK-storage               0.087   29.7    0.0    0.0       0.213   73.1       0  02:16    2300.00
  
  
  ***********************
  Outfall Loading Summary
  ***********************
  
  -----------------------------------------------------------
                         Flow       Avg       Max       Total
                         Freq      Flow      Flow      Volume
  Outfall Node           Pcnt       LPS       LPS    10^6 ltr
  -----------------------------------------------------------
  CC-1                  44.56    683.00    683.00       5.433
  CC-2                  40.85    683.00    683.00       4.716
  JK-1                  11.77   1000.00   1000.00       1.683
  JK-2                  12.64   1000.00   1000.00       1.881
  WSC                   99.95    217.87    552.00       4.395
  -----------------------------------------------------------
  System                41.96   3583.87   3893.53      18.108
  
  
  ********************
  Link Flow Summary
  ********************
  
  -----------------------------------------------------------------------------
                                 Maximum  Time of Max   Maximum    Max/    Max/
                                  |Flow|   Occurrence   |Veloc|    Full    Full
  Link                 Type          LPS  days hr:min     m/sec    Flow   Depth
  -----------------------------------------------------------------------------
  1                    CONDUIT    552.00     0  02:35      2.82    0.19    0.30
  WS02003060WS02003069 CONDUIT    550.64     0  02:34      1.64    0.22    0.34
  WS02003066WSF200     CONDUIT    534.28     0  02:33      2.85    0.09    0.22
  WS02003067WS02003066 CONDUIT    534.22     0  02:33      1.20    0.17    0.41
  WS02003069WS02003072 CONDUIT    550.60     0  02:34      1.37    0.27    0.39
  WS02003072WS02003073 CONDUIT    550.44     0  02:34      1.43    1.19    0.37
  WS02004401WS02004402 CONDUIT    536.36     0  02:29      1.07    0.64    0.89
  WS02004402WS02004403 CONDUIT    537.32     0  02:45      1.08    0.77    0.91
  WS02004403WS02004404 CONDUIT    558.19     0  02:30      1.06    0.40    0.96
  WS02004404WS02004405 CONDUIT    603.19     0  02:31      1.23    5.91    0.98
  WS02004405WS02004406 CONDUIT    543.97     0  02:31      1.20    1.07    0.96
  WS02004406WS02004407 CONDUIT    537.35     0  02:31      1.04    0.24    0.63
  WS02004407WS02004409 CONDUIT    536.62     0  02:46      1.48    0.19    0.48
  WS02004409WS02004410 CONDUIT    535.80     0  02:46      0.97    0.69    0.67
  WS02004410WS02004411 CONDUIT    534.92     0  02:32      0.93    0.73    0.68
  WS02004411WS02004412 CONDUIT    534.61     0  02:32      0.92    0.76    0.69
  WS02004412WS02004413 CONDUIT    534.57     0  02:32      0.87    0.36    0.78
  WS02004413WS02003067 CONDUIT    534.19     0  02:33      1.11    0.23    0.59
  WS02006109WS02006110 CONDUIT    558.94     0  03:05      1.11    1.07    1.00
  WS02006110WS02006113 CONDUIT    566.53     0  03:05      1.38    0.52    0.79
  WS02006111WS02006112 CONDUIT    544.87     0  03:28      1.85    0.26    0.67
  WS02006112WS02006115 CONDUIT    549.80     0  03:06      0.78    0.32    0.88
  WS02006113WS02006111 CONDUIT    563.00     0  02:24      2.47    0.67    0.46
  WS02006115WS02006116 CONDUIT    539.20     0  03:30      1.11    0.69    0.78
  WS02006116WS02004401 CONDUIT    536.49     0  02:23      1.07    0.74    0.86
  WS02006228WS02006109 CONDUIT    557.70     0  03:05      1.11    2.44    1.00
  WS02006229WS02006228 CONDUIT    557.32     0  03:05      1.11    1.85    1.00
  WS02006230WS02006229 CONDUIT    556.53     0  03:05      1.45   12.39    1.00
  WS02006231WS02006230 CONDUIT    575.93     0  02:21      1.57    8.74    1.00
  WS02006232WS02006231 CONDUIT    582.36     0  02:21      1.52    1.22    1.00
  WS02006234WS02006232 CONDUIT    581.40     0  02:21      1.51    1.18    1.00
  WS02006235WS02006234 CONDUIT    575.78     0  02:21      1.50    6.07    1.00
  WS02006238WS02006235 CONDUIT    423.65     0  02:45      1.45    0.95    1.00
  WS02006239WS02006238 CONDUIT    423.55     0  02:45      1.10    1.36    1.00
  WS02006240WS02006239 CONDUIT    422.23     0  02:30      1.24    1.33    1.00
  WS02006242WS02006240 CONDUIT    421.15     0  03:00      1.14    1.67    1.00
  WS02006243WS02006242 CONDUIT    420.92     0  03:00      1.40    0.90    1.00
  WS02006245WS02006243 CONDUIT    421.14     0  03:00      1.45    1.25    1.00
  WS02006247WS02006245 CONDUIT    420.08     0  03:00      1.43    3.33    1.00
  WS02006248WS02006247 CONDUIT    419.35     0  03:00      1.44    0.91    1.00
  WS02006249WS02006248 CONDUIT    420.71     0  02:30      1.39    2.30    1.00
  WS02006251WS02006249 CONDUIT    468.84     0  01:40      2.09    1.35    1.00
  WS02006252WS02006251 CONDUIT    408.79     0  02:14     23.11    1.50    1.00
  WS02006256WS02006235 CONDUIT    288.91     0  00:00      4.23    3.06    1.00
  WSF200WS02003060     CONDUIT    534.51     0  02:33      2.06    0.12    0.28
  YS02001580YS02001583 CONDUIT     75.14     0  02:05      0.48    0.29    1.00
  YS02001583YS02001586 CONDUIT    101.89     0  02:05      0.44    0.15    1.00
  YS02001586YS02001590 CONDUIT    320.74     0  02:48      1.24    0.56    1.00
  YS02001590YS02001593 CONDUIT    318.53     0  02:48      1.13    2.00    1.00
  YS02001593YS02001596 CONDUIT    318.28     0  02:39      1.75    0.50    1.00
  YS02001596YS02001600 CONDUIT    318.13     0  02:21      1.29    0.62    1.00
  YS02001600YS02001601 CONDUIT    318.29     0  02:48      1.13    0.55    1.00
  YS02001601YS02001602 CONDUIT    493.69     0  02:05      1.75    1.78    1.00
  YS02001602YS02001605 CONDUIT    493.59     0  02:05      1.75   10.45    1.00
  YS02001605YS02001607 CONDUIT    493.39     0  02:05      1.75    2.71    1.00
  YS02001607YS02001610 CONDUIT    494.14     0  02:04      0.63    0.47    1.00
  YS02001610YS02001613 CONDUIT    617.21     0  02:28      0.79    0.71    1.00
  YS02001613YS02001616 CONDUIT    617.44     0  02:28      0.79    0.53    1.00
  YS02001616YS02001619 CONDUIT    617.19     0  02:28      0.79    1.07    1.00
  YS02001619YS02001622 CONDUIT   1053.88     0  02:27      1.34    1.55    1.00
  YS02001622YS02001625 CONDUIT   1053.58     0  02:27      1.34    0.56    1.00
  YS02001625YS02001629 CONDUIT    928.67     0  02:11      1.18    0.44    1.00
  YS02001629YS02163301 CONDUIT    928.31     0  02:10      1.18    1.14    1.00
  YS02001633YS02163601 CONDUIT   1332.44     0  02:11      1.70    1.40    1.00
  YS02001641YS02001644 CONDUIT   1332.38     0  02:11      1.70    4.31    1.00
  YS02001644YS02001647 CONDUIT   1699.39     0  02:12      2.18    1.00    1.00
  YS02001647YS02001649 CONDUIT   1713.39     0  02:12      2.29    0.90    1.00
  YS02001649YS02001757 CONDUIT   1950.44     0  02:12      2.49    1.18    1.00
  YS02001652YS02001649 CONDUIT   1158.09     0  02:25      1.47    0.57    1.00
  YS02001655YS02001652 CONDUIT   1157.41     0  02:25      1.47    0.56    1.00
  YS02001658YS02001655 CONDUIT   1157.99     0  02:25      1.80    0.49    1.00
  YS02001661YS02001658 CONDUIT   1158.35     0  02:25      2.21    0.45    1.00
  YS02001664YS02001661 CONDUIT   1156.40     0  02:25      2.17    0.36    0.88
  YS02001745YS02001748 CONDUIT    714.42     0  02:25      2.06    0.28    0.97
  YS02001748YS02001751 CONDUIT    715.32     0  02:25      1.61    0.36    1.00
  YS02001751YS02001754 CONDUIT    715.82     0  02:25      1.36    0.35    1.00
  YS02001754YS02001757 CONDUIT    715.69     0  02:25      0.91    0.29    1.00
  YS02001757CaochengTiaoxuchi CONDUIT   3222.94     0  02:19      4.10    1.39    1.00
  YS02001759YS02001757 CONDUIT   1367.67     0  02:24      1.74    0.97    1.00
  YS02001762YS02001759 CONDUIT    745.64     0  02:18      0.95    0.86    1.00
  YS02001765YS02001762 CONDUIT    744.78     0  02:18      0.95    0.70    1.00
  YS02001767YS02001765 CONDUIT    746.26     0  02:18      0.95    0.94    1.00
  YS02001770YS02001767 CONDUIT    744.37     0  02:18      0.95    2.95    1.00
  YS02001774YS02001770 CONDUIT    850.02     0  02:26      1.08    0.54    1.00
  YS02001779YS02001774 CONDUIT    849.87     0  02:26      1.08    0.43    1.00
  YS02001783YS02001784 CONDUIT   1172.70     0  02:23      2.33    1.62    1.00
  YS02001784YS02001785 CONDUIT   1175.32     0  02:23      2.34    2.74    1.00
  YS02001786YS02001788 CONDUIT   1177.09     0  02:23      2.49    2.27    0.89
  YS02001788YS02001790 CONDUIT   1180.82     0  02:23      2.73    0.87    0.85
  YS02001790YS02001791 CONDUIT   1303.49     0  02:23      3.45    1.42    0.71
  YS02001791YS02001793 CONDUIT   1254.30     0  02:20      6.74    0.54    0.44
  YS02001793JiankangQianchi CONDUIT   1283.47     0  02:27      2.56    0.10    0.65
  YS02001882YS02001884 CONDUIT     31.05     0  02:09      0.15    0.04    1.00
  YS02001884YS02001887 CONDUIT     36.65     0  02:53      0.10    0.05    1.00
  YS02001887YS02001890 CONDUIT   1052.30     0  02:25      1.34    1.80    1.00
  YS02001890YS02001895 CONDUIT    519.49     0  02:22      0.66    0.24    1.00
  YS02001895YS02001898 CONDUIT    519.68     0  02:30      0.66    0.90    1.00
  YS02001898YS02001901 CONDUIT    518.82     0  02:23      0.66    0.33    1.00
  YS02001901YS02001904 CONDUIT    519.30     0  02:23      0.66    0.81    1.00
  YS02001904YS02001907 CONDUIT    522.06     0  02:23      0.66    0.18    1.00
  YS02001907YS02006553 CONDUIT    803.89     0  02:41      0.89    0.95    1.00
  YS02001910YS02001907 CONDUIT   1884.50     0  02:25      2.40    1.06    1.00
  YS02001915YS02001910 CONDUIT   1884.05     0  02:25      2.40    0.94    1.00
  YS02001918YS02001915 CONDUIT    627.86     0  02:25      0.80    0.35    1.00
  YS02001920YS02001918 CONDUIT    626.66     0  02:25      0.80    0.61    1.00
  YS02001923YS02001920 CONDUIT    622.40     0  02:25      0.79    0.28    1.00
  YS02001926YS02001923 CONDUIT    620.64     0  02:26      0.94    0.89    1.00
  YS02001929YS02001926 CONDUIT    619.83     0  02:26      1.06    0.29    1.00
  YS02006553YS02006556 CONDUIT    804.12     0  02:41      1.02    0.69    1.00
  YS02006556YS02006558 CONDUIT    806.55     0  02:41      1.03    0.64    1.00
  YS02006558YS02006561 CONDUIT   1170.14     0  02:23      4.14    2.59    1.00
  YS02006561YS02001783 CONDUIT   1173.60     0  02:23      2.33    0.61    1.00
  YS02163301YS02001633 CONDUIT    928.21     0  02:11      1.18    0.87    1.00
  YS02163601YS02164001 CONDUIT   1332.52     0  02:11      1.70    1.18    1.00
  YS02164001YS02001641 CONDUIT   1332.37     0  02:11      1.70    1.82    1.00
  CC-R1                PUMP       683.00     0  00:00              1.00
  CC-R2                PUMP       683.00     0  00:00              1.00
  CC-S1                PUMP       200.00     0  00:00              1.00
  CC-S2                PUMP       200.00     0  00:00              1.00
  JK-R1                PUMP      1000.00     0  00:00              1.00
  JK-R2                PUMP      1000.00     0  00:00              1.00
  JK-S                 PUMP       300.00     0  00:00              1.00
  
  
  ***************************
  Flow Classification Summary
  ***************************
  
  -------------------------------------------------------------------------------------
                      Adjusted    ---------- Fraction of Time in Flow Class ---------- 
                       /Actual         Up    Down  Sub   Sup   Up    Down  Norm  Inlet 
  Conduit               Length    Dry  Dry   Dry   Crit  Crit  Crit  Crit  Ltd   Ctrl  
  -------------------------------------------------------------------------------------
  1                       1.00   0.00  0.00  0.00  0.00  1.00  0.00  0.00  0.32  0.00
  WS02003060WS02003069    1.00   0.00  0.00  0.00  0.98  0.02  0.00  0.00  0.75  0.00
  WS02003066WSF200        1.00   0.07  0.00  0.00  0.00  0.93  0.00  0.00  0.85  0.00
  WS02003067WS02003066    1.00   0.06  0.01  0.00  0.94  0.00  0.00  0.00  0.00  0.00
  WS02003069WS02003072    1.00   0.00  0.00  0.00  0.99  0.01  0.00  0.00  0.78  0.00
  WS02003072WS02003073    1.00   0.00  0.00  0.00  0.00  0.00  0.00  1.00  0.00  0.00
  WS02004401WS02004402    1.00   0.02  0.00  0.00  0.98  0.00  0.00  0.00  0.00  0.00
  WS02004402WS02004403    1.00   0.02  0.00  0.00  0.97  0.00  0.00  0.00  0.00  0.00
  WS02004403WS02004404    1.00   0.00  0.03  0.00  0.97  0.00  0.00  0.00  0.00  0.00
  WS02004404WS02004405    1.00   0.00  0.00  0.00  1.00  0.00  0.00  0.00  0.01  0.00
  WS02004405WS02004406    1.00   0.00  0.00  0.00  1.00  0.00  0.00  0.00  0.00  0.00
  WS02004406WS02004407    1.00   0.00  0.04  0.00  0.96  0.00  0.00  0.00  0.00  0.00
  WS02004407WS02004409    1.00   0.04  0.00  0.00  0.95  0.01  0.00  0.00  0.96  0.00
  WS02004409WS02004410    1.00   0.04  0.00  0.00  0.96  0.00  0.00  0.00  0.00  0.00
  WS02004410WS02004411    1.00   0.04  0.00  0.00  0.96  0.00  0.00  0.00  0.00  0.00
  WS02004411WS02004412    1.00   0.04  0.00  0.00  0.96  0.00  0.00  0.00  0.00  0.00
  WS02004412WS02004413    1.00   0.04  0.00  0.00  0.95  0.00  0.00  0.00  0.00  0.00
  WS02004413WS02003067    1.00   0.04  0.01  0.00  0.00  0.00  0.94  0.00  0.00  0.00
  WS02006109WS02006110    1.00   0.00  0.01  0.00  0.98  0.00  0.01  0.00  0.00  0.00
  WS02006110WS02006113    1.00   0.01  0.01  0.00  0.98  0.00  0.00  0.00  0.00  0.00
  WS02006111WS02006112    1.00   0.02  0.00  0.00  0.98  0.00  0.00  0.00  0.98  0.00
  WS02006112WS02006115    1.00   0.02  0.00  0.00  0.97  0.00  0.00  0.00  0.00  0.00
  WS02006113WS02006111    1.00   0.02  0.00  0.00  0.00  0.98  0.00  0.00  0.11  0.00
  WS02006115WS02006116    1.00   0.02  0.00  0.00  0.97  0.00  0.00  0.01  0.00  0.00
  WS02006116WS02004401    1.00   0.02  0.00  0.00  0.98  0.00  0.00  0.00  0.00  0.00
  WS02006228WS02006109    1.00   0.00  0.00  0.00  1.00  0.00  0.00  0.00  0.01  0.00
  WS02006229WS02006228    1.00   0.00  0.00  0.00  0.99  0.00  0.00  0.01  0.00  0.00
  WS02006230WS02006229    1.00   0.00  0.00  0.00  0.99  0.00  0.00  0.01  0.04  0.00
  WS02006231WS02006230    1.00   0.00  0.00  0.00  0.21  0.00  0.79  0.00  0.00  0.00
  WS02006232WS02006231    1.00   0.00  0.00  0.00  0.99  0.00  0.01  0.00  0.00  0.00
  WS02006234WS02006232    1.00   0.00  0.00  0.00  1.00  0.00  0.00  0.00  0.04  0.00
  WS02006235WS02006234    1.00   0.00  0.00  0.00  0.91  0.00  0.09  0.00  0.00  0.00
  WS02006238WS02006235    1.00   0.00  0.00  0.00  1.00  0.00  0.00  0.00  0.01  0.00
  WS02006239WS02006238    1.00   0.00  0.00  0.00  1.00  0.00  0.00  0.00  0.09  0.00
  WS02006240WS02006239    1.00   0.00  0.00  0.00  0.70  0.00  0.00  0.29  0.06  0.00
  WS02006242WS02006240    1.00   0.00  0.00  0.00  0.98  0.00  0.01  0.00  0.00  0.00
  WS02006243WS02006242    1.00   0.00  0.00  0.00  0.99  0.00  0.00  0.01  0.62  0.00
  WS02006245WS02006243    1.00   0.00  0.00  0.00  0.81  0.00  0.00  0.19  0.02  0.00
  WS02006247WS02006245    1.00   0.00  0.00  0.00  0.95  0.00  0.00  0.05  0.00  0.00
  WS02006248WS02006247    1.00   0.00  0.00  0.00  0.97  0.00  0.00  0.03  0.57  0.00
  WS02006249WS02006248    1.00   0.00  0.00  0.00  0.40  0.00  0.60  0.00  0.00  0.00
  WS02006251WS02006249    1.00   0.00  0.00  0.00  0.99  0.01  0.00  0.00  0.63  0.00
  WS02006252WS02006251    1.00   0.00  0.60  0.00  0.09  0.00  0.31  0.00  0.00  0.00
  WS02006256WS02006235    1.00   0.00  0.00  0.00  0.97  0.03  0.00  0.00  0.01  0.00
  WSF200WS02003060        1.00   0.00  0.07  0.00  0.48  0.46  0.00  0.00  0.67  0.00
  YS02001580YS02001583    1.00   0.25  0.53  0.00  0.22  0.00  0.00  0.00  0.62  0.00
  YS02001583YS02001586    1.00   0.40  0.33  0.00  0.27  0.00  0.00  0.00  0.62  0.00
  YS02001586YS02001590    1.00   0.13  0.00  0.00  0.47  0.04  0.00  0.37  0.37  0.00
  YS02001590YS02001593    1.00   0.13  0.01  0.00  0.14  0.00  0.73  0.00  0.00  0.00
  YS02001593YS02001596    1.00   0.13  0.00  0.00  0.16  0.01  0.00  0.70  0.02  0.00
  YS02001596YS02001600    1.00   0.13  0.00  0.00  0.22  0.01  0.00  0.63  0.05  0.00
  YS02001600YS02001601    1.00   0.13  0.01  0.00  0.86  0.00  0.00  0.00  0.58  0.00
  YS02001601YS02001602    1.00   0.13  0.01  0.00  0.87  0.00  0.00  0.00  0.00  0.00
  YS02001602YS02001605    1.00   0.13  0.00  0.00  0.87  0.00  0.00  0.00  0.00  0.00
  YS02001605YS02001607    1.00   0.14  0.00  0.00  0.86  0.00  0.00  0.00  0.00  0.00
  YS02001607YS02001610    1.00   0.13  0.01  0.00  0.86  0.00  0.00  0.00  0.01  0.00
  YS02001610YS02001613    1.00   0.13  0.00  0.00  0.87  0.00  0.00  0.00  0.00  0.00
  YS02001613YS02001616    1.00   0.13  0.00  0.00  0.87  0.00  0.00  0.00  0.00  0.00
  YS02001616YS02001619    1.00   0.13  0.00  0.00  0.87  0.00  0.00  0.00  0.00  0.00
  YS02001619YS02001622    1.00   0.13  0.00  0.00  0.87  0.00  0.00  0.00  0.26  0.00
  YS02001622YS02001625    1.00   0.13  0.00  0.00  0.87  0.00  0.00  0.00  0.03  0.00
  YS02001625YS02001629    1.00   0.13  0.04  0.00  0.19  0.00  0.64  0.00  0.00  0.00
  YS02001629YS02163301    1.00   0.15  0.01  0.00  0.84  0.00  0.00  0.00  0.00  0.00
  YS02001633YS02163601    1.00   0.00  0.01  0.00  0.99  0.00  0.00  0.00  0.14  0.00
  YS02001641YS02001644    1.00   0.00  0.01  0.00  0.99  0.00  0.00  0.00  0.00  0.00
  YS02001644YS02001647    1.00   0.00  0.16  0.00  0.84  0.00  0.00  0.00  0.00  0.00
  YS02001647YS02001649    1.00   0.00  0.16  0.00  0.55  0.29  0.00  0.00  0.55  0.00
  YS02001649YS02001757    1.00   0.00  0.00  0.00  0.68  0.32  0.00  0.00  0.42  0.00
  YS02001652YS02001649    1.00   0.00  0.00  0.00  0.97  0.03  0.00  0.00  0.72  0.00
  YS02001655YS02001652    1.00   0.00  0.00  0.00  0.22  0.01  0.00  0.77  0.06  0.00
  YS02001658YS02001655    1.00   0.00  0.14  0.00  0.67  0.19  0.00  0.00  0.67  0.00
  YS02001661YS02001658    1.00   0.14  0.00  0.00  0.51  0.35  0.00  0.00  0.68  0.00
  YS02001664YS02001661    1.00   0.13  0.00  0.00  0.77  0.11  0.00  0.00  0.85  0.00
  YS02001745YS02001748    1.00   0.00  0.00  0.00  0.12  0.00  0.00  0.88  0.04  0.00
  YS02001748YS02001751    1.00   0.00  0.00  0.00  0.83  0.17  0.00  0.00  0.72  0.00
  YS02001751YS02001754    1.00   0.00  0.00  0.00  0.19  0.01  0.00  0.80  0.04  0.00
  YS02001754YS02001757    1.00   0.00  0.00  0.00  1.00  0.00  0.00  0.00  0.79  0.00
  YS02001757CaochengTiaoxuchi    1.00   0.00  0.00  0.00  0.93  0.07  0.00  0.00  0.75  0.00
  YS02001759YS02001757    1.00   0.00  0.00  0.00  0.99  0.01  0.00  0.00  0.58  0.00
  YS02001762YS02001759    1.00   0.00  0.00  0.00  1.00  0.00  0.00  0.00  0.05  0.00
  YS02001765YS02001762    1.00   0.00  0.00  0.00  1.00  0.00  0.00  0.00  0.69  0.00
  YS02001767YS02001765    1.00   0.00  0.00  0.00  1.00  0.00  0.00  0.00  0.00  0.00
  YS02001770YS02001767    1.00   0.00  0.00  0.00  1.00  0.00  0.00  0.00  0.00  0.00
  YS02001774YS02001770    1.00   0.00  0.13  0.00  0.71  0.00  0.16  0.00  0.03  0.00
  YS02001779YS02001774    1.00   0.00  0.00  0.00  1.00  0.00  0.00  0.00  0.73  0.00
  YS02001783YS02001784    1.00   0.00  0.17  0.00  0.83  0.00  0.00  0.00  0.54  0.00
  YS02001784YS02001785    1.00   0.00  0.00  0.00  1.00  0.00  0.00  0.00  0.16  0.00
  YS02001786YS02001788    1.00   0.00  0.00  0.00  0.79  0.21  0.00  0.00  0.00  0.00
  YS02001788YS02001790    1.00   0.00  0.00  0.00  0.21  0.79  0.00  0.00  0.78  0.00
  YS02001790YS02001791    1.00   0.00  0.00  0.00  0.01  0.99  0.00  0.00  0.16  0.00
  YS02001791YS02001793    1.00   0.00  0.00  0.00  0.00  1.00  0.00  0.00  0.01  0.00
  YS02001793JiankangQianchi    1.00   0.00  0.00  0.00  0.97  0.03  0.00  0.00  0.95  0.00
  YS02001882YS02001884    1.00   0.15  0.01  0.00  0.85  0.00  0.00  0.00  0.00  0.00
  YS02001884YS02001887    1.00   0.06  0.05  0.00  0.89  0.00  0.00  0.00  0.00  0.00
  YS02001887YS02001890    1.00   0.00  0.00  0.00  0.97  0.00  0.03  0.00  0.00  0.00
  YS02001890YS02001895    1.00   0.00  0.15  0.00  0.84  0.00  0.00  0.00  0.00  0.00
  YS02001895YS02001898    1.00   0.16  0.00  0.00  0.82  0.00  0.02  0.00  0.00  0.00
  YS02001898YS02001901    1.00   0.16  0.00  0.00  0.84  0.00  0.00  0.00  0.01  0.00
  YS02001901YS02001904    1.00   0.16  0.00  0.00  0.84  0.00  0.00  0.00  0.00  0.00
  YS02001904YS02001907    1.00   0.00  0.16  0.00  0.84  0.00  0.00  0.00  0.00  0.00
  YS02001907YS02006553    1.00   0.00  0.02  0.00  0.98  0.00  0.00  0.00  0.00  0.00
  YS02001910YS02001907    1.00   0.00  0.00  0.00  0.97  0.00  0.00  0.03  0.12  0.00
  YS02001915YS02001910    1.00   0.00  0.00  0.00  0.97  0.03  0.00  0.00  0.14  0.00
  YS02001918YS02001915    1.00   0.00  0.01  0.00  0.98  0.02  0.00  0.00  0.72  0.00
  YS02001920YS02001918    1.00   0.00  0.01  0.00  0.99  0.00  0.00  0.00  0.00  0.00
  YS02001923YS02001920    1.00   0.00  0.00  0.00  1.00  0.00  0.00  0.00  0.90  0.00
  YS02001926YS02001923    1.00   0.00  0.07  0.00  0.08  0.00  0.85  0.00  0.00  0.00
  YS02001929YS02001926    1.00   0.00  0.13  0.00  0.87  0.00  0.00  0.00  0.81  0.00
  YS02006553YS02006556    1.00   0.01  0.00  0.00  0.99  0.00  0.00  0.00  0.03  0.00
  YS02006556YS02006558    1.00   0.00  0.00  0.00  1.00  0.00  0.00  0.00  0.00  0.00
  YS02006558YS02006561    1.00   0.17  0.00  0.00  0.07  0.76  0.00  0.00  0.17  0.00
  YS02006561YS02001783    1.00   0.17  0.00  0.00  0.11  0.72  0.00  0.00  0.66  0.00
  YS02163301YS02001633    1.00   0.00  0.15  0.00  0.85  0.00  0.00  0.00  0.00  0.00
  YS02163601YS02164001    1.00   0.00  0.08  0.00  0.92  0.00  0.00  0.00  0.00  0.00
  YS02164001YS02001641    1.00   0.01  0.07  0.00  0.92  0.00  0.00  0.00  0.05  0.00
  
  
  *************************
  Conduit Surcharge Summary
  *************************
  
  ----------------------------------------------------------------------------
                                                           Hours        Hours 
                         --------- Hours Full --------   Above Full   Capacity
  Conduit                Both Ends  Upstream  Dnstream   Normal Flow   Limited
  ----------------------------------------------------------------------------
  WS02003072WS02003073        0.01      0.01      0.01      1.06         0.01
  WS02004403WS02004404        0.01      0.01      0.01      0.01         0.01
  WS02004404WS02004405        0.01      0.01      0.01      2.49         0.01
  WS02004405WS02004406        0.01      0.01      0.01      0.42         0.01
  WS02006109WS02006110        0.52      0.52      1.62      0.62         0.01
  WS02006110WS02006113        0.01      0.01      1.61      0.01         0.01
  WS02006111WS02006112        0.01      0.01      1.74      0.01         0.01
  WS02006112WS02006115        0.01      0.01      0.67      0.01         0.01
  WS02006228WS02006109        1.60      1.62      1.60      2.00         1.60
  WS02006229WS02006228        1.60      1.61      1.60      1.74         1.59
  WS02006230WS02006229        1.66      1.70      1.66      3.05         1.66
  WS02006231WS02006230        0.55      0.55      0.69      2.69         0.01
  WS02006232WS02006231        0.64      0.64      1.62      0.70         0.01
  WS02006234WS02006232        1.57      1.57      1.62      0.69         0.68
  WS02006235WS02006234        1.02      1.02      1.58      2.55         0.02
  WS02006238WS02006235        1.59      1.59      1.62      0.01         0.01
  WS02006239WS02006238        1.60      1.61      1.60      1.57         1.38
  WS02006240WS02006239        1.59      1.60      1.60      1.56         1.28
  WS02006242WS02006240        1.58      1.58      1.62      1.71         0.01
  WS02006243WS02006242        1.54      1.54      1.61      0.01         0.03
  WS02006245WS02006243        1.53      1.53      1.53      1.04         1.03
  WS02006247WS02006245        1.53      1.53      1.53      2.20         1.52
  WS02006248WS02006247        1.52      1.52      1.53      0.01         0.04
  WS02006249WS02006248        1.52      1.52      1.52      2.15         0.01
  WS02006251WS02006249        1.51      1.51      1.52      1.68         1.46
  WS02006252WS02006251        1.78      1.78      1.79      1.78         0.01
  WS02006256WS02006235        2.56      2.61      7.04      1.27         0.01
  YS02001580YS02001583        0.79      0.79      0.85      0.01         0.01
  YS02001583YS02001586        0.79      0.79      0.92      0.01         0.01
  YS02001586YS02001590        0.93      0.93      1.00      0.01         0.01
  YS02001590YS02001593        1.00      1.00      1.03      1.00         0.01
  YS02001593YS02001596        1.02      1.02      1.12      0.01         0.01
  YS02001596YS02001600        1.18      1.18      1.28      0.01         0.01
  YS02001600YS02001601        1.34      1.34      1.64      0.01         0.01
  YS02001601YS02001602        1.52      1.52      1.68      1.29         0.01
  YS02001602YS02001605        1.47      1.47      1.52      2.51         0.01
  YS02001605YS02001607        1.42      1.47      1.42      1.59         1.41
  YS02001607YS02001610        0.98      0.98      1.01      0.01         0.01
  YS02001610YS02001613        0.98      0.98      1.01      0.01         0.01
  YS02001613YS02001616        0.94      0.94      0.98      0.01         0.01
  YS02001616YS02001619        0.92      0.92      0.94      0.08         0.09
  YS02001619YS02001622        0.92      0.92      0.92      1.01         0.87
  YS02001622YS02001625        0.92      0.92      1.10      0.01         0.01
  YS02001625YS02001629        0.85      0.85      1.10      0.01         0.01
  YS02001629YS02163301        1.10      1.10      1.11      0.18         0.23
  YS02001633YS02163601        1.13      1.13      1.16      0.40         0.38
  YS02001641YS02001644        1.02      1.06      1.02      1.72         1.01
  YS02001644YS02001647        0.79      0.79      1.02      0.01         0.01
  YS02001647YS02001649        0.79      0.79      0.89      0.01         0.01
  YS02001649YS02001757        0.89      0.89      0.95      0.18         0.09
  YS02001652YS02001649        0.74      0.74      0.89      0.01         0.01
  YS02001655YS02001652        0.55      0.55      0.71      0.01         0.01
  YS02001658YS02001655        0.33      0.33      0.55      0.01         0.01
  YS02001661YS02001658        0.11      0.11      0.33      0.01         0.01
  YS02001664YS02001661        0.01      0.01      0.15      0.01         0.01
  YS02001745YS02001748        0.01      0.01      0.25      0.01         0.01
  YS02001748YS02001751        0.30      0.30      0.42      0.01         0.01
  YS02001751YS02001754        0.42      0.42      0.62      0.01         0.01
  YS02001754YS02001757        0.66      0.66      0.95      0.01         0.01
  YS02001757CaochengTiaoxuchi        0.92      0.95      1.41      0.50         0.41
  YS02001759YS02001757        0.86      0.86      0.95      0.01         0.01
  YS02001762YS02001759        0.83      0.83      0.86      0.01         0.02
  YS02001765YS02001762        0.80      0.80      0.83      0.01         0.01
  YS02001767YS02001765        0.77      0.77      0.80      0.01         0.02
  YS02001770YS02001767        0.77      0.77      0.77      0.68         0.53
  YS02001774YS02001770        0.74      0.74      0.82      0.01         0.01
  YS02001779YS02001774        0.60      0.60      0.82      0.01         0.01
  YS02001783YS02001784        0.64      0.67      0.64      0.86         0.64
  YS02001784YS02001785        0.52      0.64      0.52      1.16         0.52
  YS02001786YS02001788        0.01      0.52      0.01      1.01         0.01
  YS02001790YS02001791        0.01      0.01      0.01      0.63         0.01
  YS02001793JiankangQianchi        0.01      0.01      6.00      0.01         0.01
  YS02001882YS02001884        0.61      0.61      0.62      0.01         0.01
  YS02001884YS02001887        0.64      0.64      0.66      0.01         0.01
  YS02001887YS02001890        0.67      0.67      0.69      0.18         0.01
  YS02001890YS02001895        0.59      0.59      0.71      0.01         0.01
  YS02001895YS02001898        0.58      0.58      0.59      0.01         0.01
  YS02001898YS02001901        0.60      0.60      0.64      0.01         0.01
  YS02001901YS02001904        0.63      0.63      0.64      0.01         0.01
  YS02001904YS02001907        0.63      0.63      0.99      0.01         0.01
  YS02001907YS02006553        1.18      1.18      1.25      0.01         0.01
  YS02001910YS02001907        0.71      0.71      0.97      0.05         0.05
  YS02001915YS02001910        0.60      0.60      0.71      0.01         0.01
  YS02001918YS02001915        0.51      0.51      0.60      0.01         0.01
  YS02001920YS02001918        0.51      0.51      0.52      0.01         0.01
  YS02001923YS02001920        0.46      0.46      0.52      0.01         0.01
  YS02001926YS02001923        0.18      0.18      0.21      0.01         0.01
  YS02001929YS02001926        0.07      0.07      0.21      0.01         0.01
  YS02006553YS02006556        0.82      0.82      0.99      0.01         0.01
  YS02006556YS02006558        0.91      0.91      1.01      0.01         0.01
  YS02006558YS02006561        0.54      0.80      0.54      1.10         0.54
  YS02006561YS02001783        0.47      0.47      0.67      0.01         0.01
  YS02163301YS02001633        1.11      1.11      1.15      0.01         0.01
  YS02163601YS02164001        1.06      1.06      1.16      0.15         0.01
  YS02164001YS02001641        1.06      1.06      1.06      0.78         0.72
  
  
  ***************
  Pumping Summary
  ***************
  
  ---------------------------------------------------------------------------------------------------------
                                                  Min       Avg       Max     Total     Power    % Time Off
                        Percent   Number of      Flow      Flow      Flow    Volume     Usage    Pump Curve
  Pump                 Utilized   Start-Ups       LPS       LPS       LPS  10^6 ltr     Kw-hr    Low   High
  ---------------------------------------------------------------------------------------------------------
  CC-R1                   27.67          24      0.00    683.00    683.00     5.443     99.38    0.0   36.5
  CC-R2                   24.02          24      0.00    683.00    683.00     4.725     86.12    0.0   38.7
  CC-S1                   27.57          22      0.00    200.00    200.00     1.588      9.09    0.0    0.0
  CC-S2                   23.71          20      0.00    200.00    200.00     1.366      7.61    0.0    0.0
  JK-R1                    5.84          14      0.00   1000.00   1000.00     1.681     17.27    0.0    0.0
  JK-R2                    6.53          15      0.00   1000.00   1000.00     1.880     18.99    0.0    0.0
  JK-S                    15.09          47      0.00    300.00    300.00     1.304     21.15    0.0    0.0
  

  Analysis begun on:  Mon Dec 30 10:13:58 2024
  Analysis ended on:  Mon Dec 30 10:14:00 2024
  Total elapsed time: 00:00:02