
  EPA STORM WATER MANAGEMENT MODEL - VERSION 5.2 (Build 5.2.4)
  PYSWMM TOOLKIT API - VERSION v1.0 (2023-11-27)
  ------------------------------------------------------------

  WARNING 04: minimum elevation drop used for Conduit WS02004404WS02004405
  WARNING 03: negative offset ignored for Link YS02001904YS02001907
  
  ****************
  Analysis Options
  ****************
  Flow Units ............... LPS
  Process Models:
    Rainfall/Runoff ........ YES
    RDII ................... NO
    Snowmelt ............... NO
    Groundwater ............ NO
    Flow Routing ........... YES
    Ponding Allowed ........ NO
    Water Quality .......... NO
  Infiltration Method ...... HORTON
  Flow Routing Method ...... DYNWAVE
  Surcharge Method ......... EXTRAN
  Starting Date ............ 08/28/2015 08:00:00
  Ending Date .............. 08/28/2015 16:00:00
  Antecedent Dry Days ...... 8.0
  Report Time Step ......... 00:01:00
  Wet Time Step ............ 00:01:00
  Dry Time Step ............ 00:01:00
  Routing Time Step ........ 30.00 sec
  Variable Time Step ....... YES
  Maximum Trials ........... 8
  Number of Threads ........ 4
  Head Tolerance ........... 0.001500 m
  
  
  **************************        Volume         Depth
  Runoff Quantity Continuity     hectare-m            mm
  **************************     ---------       -------
  Total Precipitation ......         2.620        78.985
  Evaporation Loss .........         0.000         0.000
  Infiltration Loss ........         0.102         3.081
  Surface Runoff ...........         2.485        74.926
  Final Storage ............         0.033         0.996
  Continuity Error (%) .....        -0.022
  
  
  **************************        Volume        Volume
  Flow Routing Continuity        hectare-m      10^6 ltr
  **************************     ---------     ---------
  Dry Weather Inflow .......         0.025         0.251
  Wet Weather Inflow .......         2.485        24.851
  Groundwater Inflow .......         0.000         0.000
  RDII Inflow ..............         0.000         0.000
  External Inflow ..........         0.083         0.834
  External Outflow .........         1.561        15.611
  Flooding Loss ............         1.004        10.042
  Evaporation Loss .........         0.000         0.000
  Exfiltration Loss ........         0.000         0.000
  Initial Stored Volume ....         0.243         2.431
  Final Stored Volume ......         0.275         2.753
  Continuity Error (%) .....        -0.141
  
  
  *************************
  Highest Continuity Errors
  *************************
  Node YS02001884 (4.90%)
  Node YS02001583 (-4.33%)
  
  
  ***************************
  Time-Step Critical Elements
  ***************************
  Link WS02006252WS02006251 (47.60%)
  Link WS02004404WS02004405 (13.24%)
  Link WS02006238WS02006235 (10.24%)
  Link YS02001791YS02001793 (7.86%)
  Link WS02006235WS02006234 (7.23%)
  
  
  ********************************
  Highest Flow Instability Indexes
  ********************************
  Link WS02006113WS02006111 (46)
  Link WS02006111WS02006112 (27)
  Link WS02004404WS02004405 (19)
  Link WS02004403WS02004404 (17)
  Link WS02004405WS02004406 (16)
  
  
  *********************************
  Most Frequent Nonconverging Nodes
  *********************************
  Node CC-1 (11.16%)
  Node CC-2 (11.16%)
  Node JK-1 (11.16%)
  Node JK-2 (11.16%)
  Node WSC (11.16%)
  
  
  *************************
  Routing Time Step Summary
  *************************
  Minimum Time Step           :     0.00 sec
  Average Time Step           :     1.96 sec
  Maximum Time Step           :     7.04 sec
  % of Time in Steady State   :     0.00
  Average Iterations per Step :     3.02
  % of Steps Not Converging   :    11.16
  Time Step Frequencies       :
     30.000 - 13.228 sec      :     0.00 %
     13.228 -  5.833 sec      :     7.01 %
      5.833 -  2.572 sec      :    21.43 %
      2.572 -  1.134 sec      :    18.40 %
      1.134 -  0.500 sec      :    53.16 %
  
  
  ***************************
  Subcatchment Runoff Summary
  ***************************
  
  ------------------------------------------------------------------------------------------------------------------------------
                            Total      Total      Total      Total     Imperv       Perv      Total       Total     Peak  Runoff
                           Precip      Runon       Evap      Infil     Runoff     Runoff     Runoff      Runoff   Runoff   Coeff
  Subcatchment                 mm         mm         mm         mm         mm         mm         mm    10^6 ltr      LPS
  ------------------------------------------------------------------------------------------------------------------------------
  sub60                     78.98       0.00       0.00       1.83      68.31       7.65      75.96        1.00   719.67   0.962
  sub61                     78.98       0.00       0.00       2.66      64.43      10.77      75.20        1.38  1001.39   0.952
  sub62                     78.98       0.00       0.00       1.22      71.38       5.10      76.48        2.10  1404.40   0.968
  sub63                     78.98       0.00       0.00       4.93      55.11      17.98      73.09        1.66  1140.56   0.925
  sub64                     78.98       0.00       0.00       2.49      65.93       9.36      75.30        1.81  1163.72   0.953
  sub65                     78.98       0.00       0.00       2.15      67.47       8.12      75.58        2.08  1305.14   0.957
  sub66                     78.98       0.00       0.00       6.16      55.00      16.75      71.75        3.35  1753.81   0.908
  sub67                     78.98       0.00       0.00       1.17      71.43       5.15      76.58        1.42  1074.80   0.970
  sub68                     78.98       0.00       0.00       2.20      66.74       8.86      75.60        2.08  1444.57   0.957
  sub69                     78.98       0.00       0.00       1.98      67.03       9.87      76.90        2.85  1734.96   0.974
  sub70                     78.98       0.00       0.00       6.70      51.97      20.16      72.12        2.08   987.05   0.913
  sub71                     78.98       0.00       0.00       1.25      71.34       5.07      76.41        2.00  1257.07   0.967
  sub72                     78.98       0.00       0.00       1.12      72.05       4.41      76.47        1.05   614.23   0.968
  
  
  ******************
  Node Depth Summary
  ******************
  
  ---------------------------------------------------------------------------------
                                 Average  Maximum  Maximum  Time of Max    Reported
                                   Depth    Depth      HGL   Occurrence   Max Depth
  Node                 Type       Meters   Meters   Meters  days hr:min      Meters
  ---------------------------------------------------------------------------------
  WS02003060           JUNCTION     0.23     0.38     5.32     0  02:41        0.38
  WS02003066           JUNCTION     0.19     0.30     5.85     0  02:41        0.30
  WS02003067           JUNCTION     0.50     0.70     6.02     0  02:41        0.70
  WS02003069           JUNCTION     0.26     0.43     5.02     0  02:42        0.43
  WS02003072           JUNCTION     0.32     0.50     4.87     0  02:42        0.50
  WS02003073           JUNCTION     0.18     0.30     4.36     0  02:43        0.30
  WS02004401           JUNCTION     0.60     0.88     6.88     0  02:36        0.88
  WS02004402           JUNCTION     0.63     0.91     6.87     0  02:41        0.90
  WS02004403           JUNCTION     0.65     0.92     6.85     0  02:37        0.92
  WS02004404           JUNCTION     0.73     1.04     6.89     0  02:36        1.00
  WS02004405           JUNCTION     0.71     0.97     6.82     0  02:38        0.97
  WS02004406           JUNCTION     0.73     0.96     6.79     0  02:37        0.96
  WS02004407           JUNCTION     0.17     0.30     6.61     0  02:37        0.30
  WS02004409           JUNCTION     0.39     0.67     6.44     0  02:39        0.67
  WS02004410           JUNCTION     0.42     0.68     6.40     0  02:39        0.68
  WS02004411           JUNCTION     0.44     0.69     6.37     0  02:40        0.69
  WS02004412           JUNCTION     0.46     0.70     6.34     0  02:40        0.70
  WS02004413           JUNCTION     0.62     0.86     6.33     0  02:40        0.86
  WS02006109           JUNCTION     0.65     1.16     7.78     0  02:56        1.09
  WS02006110           JUNCTION     0.65     1.20     7.78     0  02:56        1.02
  WS02006111           JUNCTION     0.18     0.29     7.00     0  03:15        0.29
  WS02006112           JUNCTION     0.75     1.10     6.98     0  02:57        1.08
  WS02006113           JUNCTION     0.27     0.46     7.36     0  03:15        0.46
  WS02006115           JUNCTION     0.48     0.78     6.92     0  02:36        0.78
  WS02006116           JUNCTION     0.56     0.86     6.90     0  02:34        0.86
  WS02006228           JUNCTION     0.64     1.25     7.90     0  02:56        1.24
  WS02006229           JUNCTION     0.61     1.31     8.00     0  02:56        1.25
  WS02006230           JUNCTION     0.61     1.54     8.28     0  02:56        1.18
  WS02006231           JUNCTION     0.42     1.29     8.41     0  02:20        1.00
  WS02006232           JUNCTION     0.55     1.67     8.71     0  03:15        1.67
  WS02006234           JUNCTION     0.48     1.96     9.12     0  03:15        1.96
  WS02006235           JUNCTION     0.51     2.00     9.16     0  03:15        2.00
  WS02006238           JUNCTION     0.54     2.15     9.29     0  03:15        2.15
  WS02006239           JUNCTION     0.51     2.03     9.24     0  03:15        2.03
  WS02006240           JUNCTION     0.48     2.10     9.39     0  03:15        2.10
  WS02006242           JUNCTION     0.54     1.55     8.82     0  02:35        1.55
  WS02006243           JUNCTION     0.45     1.48     8.90     0  03:15        1.48
  WS02006245           JUNCTION     0.46     1.56     9.04     0  03:15        1.56
  WS02006247           JUNCTION     0.48     1.47     8.97     0  03:15        1.47
  WS02006248           JUNCTION     0.44     1.10     8.69     0  02:01        1.10
  WS02006249           JUNCTION     0.48     1.09     8.69     0  01:59        1.09
  WS02006251           JUNCTION     0.48     1.63     9.30     0  02:53        1.13
  WS02006252           JUNCTION     0.35     1.50     9.74     0  00:00        0.76
  WS02006256           JUNCTION     0.99     2.35     9.28     0  00:00        2.35
  WSF200               JUNCTION     0.17     0.29     5.53     0  02:41        0.29
  YS02001580           JUNCTION     0.09     1.05     9.59     0  01:59        0.77
  YS02001583           JUNCTION     0.13     1.02     9.52     0  01:59        0.87
  YS02001586           JUNCTION     0.20     1.13     9.30     0  01:59        1.13
  YS02001590           JUNCTION     0.30     1.40     9.26     0  01:59        1.40
  YS02001593           JUNCTION     0.23     1.34     9.20     0  01:59        1.29
  YS02001596           JUNCTION     0.31     1.71     9.13     0  02:35        1.71
  YS02001600           JUNCTION     0.38     1.87     9.00     0  01:59        1.87
  YS02001601           JUNCTION     0.57     2.06     8.90     0  01:59        2.06
  YS02001602           JUNCTION     0.48     1.87     8.77     0  02:02        1.87
  YS02001605           JUNCTION     0.45     1.78     8.68     0  02:10        1.78
  YS02001607           JUNCTION     0.44     1.68     8.53     0  02:35        1.68
  YS02001610           JUNCTION     0.49     1.68     8.48     0  02:02        1.68
  YS02001613           JUNCTION     0.45     1.67     8.51     0  02:35        1.66
  YS02001616           JUNCTION     0.38     1.61     8.52     0  02:04        1.61
  YS02001619           JUNCTION     0.35     1.61     8.54     0  02:10        1.61
  YS02001622           JUNCTION     0.34     1.59     8.50     0  02:35        1.58
  YS02001625           JUNCTION     0.61     1.78     8.38     0  02:02        1.78
  YS02001629           JUNCTION     0.47     1.85     8.40     0  02:03        1.85
  YS02001633           JUNCTION     0.55     2.08     8.53     0  02:10        2.08
  YS02001641           JUNCTION     0.54     2.04     8.48     0  02:35        1.97
  YS02001644           JUNCTION     0.53     1.92     8.35     0  02:05        1.92
  YS02001647           JUNCTION     0.32     1.90     8.51     0  02:10        1.90
  YS02001649           JUNCTION     0.37     2.05     8.44     0  02:05        2.05
  YS02001652           JUNCTION     0.26     2.16     8.76     0  02:10        2.16
  YS02001655           JUNCTION     0.20     2.20     9.05     0  02:10        2.20
  YS02001658           JUNCTION     0.15     2.30     9.44     0  02:10        2.30
  YS02001661           JUNCTION     0.17     1.28     8.68     0  02:12        1.26
  YS02001664           JUNCTION     0.06     0.76     8.69     0  02:12        0.74
  YS02001745           JUNCTION     0.08     0.95     8.46     0  02:12        0.95
  YS02001748           JUNCTION     0.15     1.67     8.74     0  02:06        1.35
  YS02001751           JUNCTION     0.18     1.65     8.53     0  02:10        1.65
  YS02001754           JUNCTION     0.23     1.82     8.43     0  02:10        1.82
  YS02001757           JUNCTION     0.41     2.21     8.47     0  02:10        2.21
  YS02001759           JUNCTION     0.34     2.21     8.57     0  02:10        2.21
  YS02001762           JUNCTION     0.33     2.15     8.55     0  02:04        2.15
  YS02001765           JUNCTION     0.31     2.10     8.55     0  02:04        2.10
  YS02001767           JUNCTION     0.30     2.03     8.52     0  02:04        2.03
  YS02001770           JUNCTION     0.31     1.95     8.44     0  02:04        1.95
  YS02001774           JUNCTION     0.38     2.05     8.47     0  02:04        2.05
  YS02001779           JUNCTION     0.22     1.68     8.37     0  02:02        1.68
  YS02001783           JUNCTION     0.24     1.27     7.42     0  02:04        1.24
  YS02001784           JUNCTION     0.25     1.15     7.22     0  02:04        1.15
  YS02001786           JUNCTION     0.21     0.90     6.93     0  02:04        0.88
  YS02001788           JUNCTION     0.15     0.63     6.60     0  02:10        0.62
  YS02001790           JUNCTION     0.18     0.73     6.38     0  02:11        0.73
  YS02001791           JUNCTION     0.12     0.44     5.91     0  02:12        0.43
  YS02001793           JUNCTION     0.06     0.31     5.14     0  02:15        0.28
  YS02001882           JUNCTION     0.31     1.71     8.42     0  02:10        1.71
  YS02001884           JUNCTION     0.40     1.82     8.43     0  02:10        1.82
  YS02001887           JUNCTION     0.48     2.00     8.54     0  02:10        2.00
  YS02001890           JUNCTION     0.51     1.81     8.32     0  02:04        1.81
  YS02001895           JUNCTION     0.28     1.65     8.39     0  02:10        1.65
  YS02001898           JUNCTION     0.28     1.69     8.43     0  02:10        1.69
  YS02001901           JUNCTION     0.40     1.79     8.40     0  02:10        1.79
  YS02001904           JUNCTION     0.38     1.74     8.37     0  02:10        1.74
  YS02001907           JUNCTION     0.71     1.96     8.25     0  02:04        1.96
  YS02001910           JUNCTION     0.50     1.99     8.50     0  02:05        1.99
  YS02001915           JUNCTION     0.31     2.00     8.72     0  02:10        2.00
  YS02001918           JUNCTION     0.17     1.81     8.88     0  02:05        1.81
  YS02001920           JUNCTION     0.25     2.13     9.14     0  02:05        2.13
  YS02001923           JUNCTION     0.13     2.03     9.29     0  02:05        2.03
  YS02001926           JUNCTION     0.17     1.90     9.35     0  02:04        1.90
  YS02001929           JUNCTION     0.09     1.78     9.47     0  02:04        1.78
  YS02006553           JUNCTION     0.71     2.03     8.31     0  02:10        2.03
  YS02006556           JUNCTION     0.68     2.01     8.32     0  02:10        1.97
  YS02006558           JUNCTION     0.72     2.41     8.68     0  02:10        2.41
  YS02006561           JUNCTION     0.15     0.95     7.61     0  02:04        0.90
  YS02163301           JUNCTION     0.49     2.03     8.55     0  02:35        2.03
  YS02163601           JUNCTION     0.59     2.08     8.48     0  02:35        2.03
  YS02164001           JUNCTION     0.52     2.06     8.52     0  02:35        1.98
  CC-1                 OUTFALL      0.00     0.00     0.00     0  00:00        0.00
  CC-2                 OUTFALL      0.00     0.00     0.00     0  00:00        0.00
  JK-1                 OUTFALL      0.00     0.00     0.00     0  00:00        0.00
  JK-2                 OUTFALL      0.00     0.00     0.00     0  00:00        0.00
  WSC                  OUTFALL      0.18     0.30     0.97     0  02:43        0.30
  CC-storage           STORAGE      1.02     1.87     7.37     0  02:38        1.87
  JK-storage           STORAGE      3.29     4.24     5.04     0  02:06        4.20
  
  
  *******************
  Node Inflow Summary
  *******************
  
  -------------------------------------------------------------------------------------------------
                                  Maximum  Maximum                  Lateral       Total        Flow
                                  Lateral    Total  Time of Max      Inflow      Inflow     Balance
                                   Inflow   Inflow   Occurrence      Volume      Volume       Error
  Node                 Type           LPS      LPS  days hr:min    10^6 ltr    10^6 ltr     Percent
  -------------------------------------------------------------------------------------------------
  WS02003060           JUNCTION     16.53   557.29     0  02:41       0.476        5.58       0.054
  WS02003066           JUNCTION      0.00   540.28     0  02:41           0         5.1       0.032
  WS02003067           JUNCTION      0.00   540.22     0  02:40           0        5.11       0.089
  WS02003069           JUNCTION      0.32   557.11     0  02:42     0.00922        5.58       0.094
  WS02003072           JUNCTION      0.00   556.79     0  02:42           0        5.58       0.158
  WS02003073           JUNCTION      1.82   558.53     0  02:43      0.0524        5.62       0.140
  WS02004401           JUNCTION      0.00   540.59     0  02:34           0        5.21       0.203
  WS02004402           JUNCTION      0.00   540.44     0  02:31           0         5.2       0.206
  WS02004403           JUNCTION      0.00   542.24     0  02:37           0        5.19       0.199
  WS02004404           JUNCTION      0.16   561.83     0  02:39     0.00467        5.18       0.154
  WS02004405           JUNCTION      0.04   608.99     0  02:35      0.0011        5.18       0.165
  WS02004406           JUNCTION      0.00   546.07     0  02:37           0        5.17       0.411
  WS02004407           JUNCTION      0.00   541.75     0  02:37           0        5.15       0.028
  WS02004409           JUNCTION      0.00   541.10     0  02:38           0        5.14       0.067
  WS02004410           JUNCTION      0.00   540.71     0  02:33           0        5.14       0.102
  WS02004411           JUNCTION      0.00   540.74     0  02:39           0        5.14       0.126
  WS02004412           JUNCTION      0.00   540.37     0  02:40           0        5.13       0.164
  WS02004413           JUNCTION      0.00   540.65     0  02:40           0        5.12       0.284
  WS02006109           JUNCTION      1.23   561.05     0  03:15      0.0354        5.26       0.188
  WS02006110           JUNCTION      0.00   561.66     0  03:15           0        5.25       0.135
  WS02006111           JUNCTION      0.00   575.83     0  03:15           0        5.24       0.017
  WS02006112           JUNCTION      0.00   552.59     0  03:15           0        5.24       0.337
  WS02006113           JUNCTION      0.00   569.87     0  03:15           0        5.24       0.033
  WS02006115           JUNCTION      0.00   551.45     0  03:15           0        5.22       0.134
  WS02006116           JUNCTION      0.00   541.80     0  03:15           0        5.22       0.118
  WS02006228           JUNCTION      0.00   558.99     0  03:15           0        5.23       0.079
  WS02006229           JUNCTION      0.00   563.46     0  03:15           0        5.23       0.114
  WS02006230           JUNCTION     10.28   592.60     0  02:20       0.296        5.24       0.089
  WS02006231           JUNCTION      0.00   581.48     0  02:41           0        4.94      -0.098
  WS02006232           JUNCTION      0.00   580.64     0  02:41           0        4.95       0.274
  WS02006234           JUNCTION      0.00   575.87     0  02:41           0        4.94      -0.233
  WS02006235           JUNCTION      0.00   567.80     0  02:01           0        5.03       0.247
  WS02006238           JUNCTION      0.00   426.07     0  02:45           0        4.07      -0.139
  WS02006239           JUNCTION      0.00   424.79     0  03:15           0        4.02      -0.085
  WS02006240           JUNCTION      0.00   424.92     0  03:15           0        3.98      -0.037
  WS02006242           JUNCTION      0.00   423.97     0  03:15           0        3.95      -0.055
  WS02006243           JUNCTION      0.00   423.17     0  03:15           0        3.94       0.066
  WS02006245           JUNCTION      0.00   424.19     0  03:15           0        3.95       0.243
  WS02006247           JUNCTION      0.00   423.74     0  03:15           0        3.95       0.025
  WS02006248           JUNCTION      0.00   424.75     0  03:15           0        3.95       0.063
  WS02006249           JUNCTION      0.00   459.02     0  00:00           0         4.2       0.197
  WS02006251           JUNCTION      0.08   407.94     0  02:53     0.00222         4.2      -0.020
  WS02006252           JUNCTION      0.00   400.00     0  00:00           0        4.19      -0.018
  WS02006256           JUNCTION      0.00   300.00     0  00:00           0        1.45      -0.925
  WSF200               JUNCTION      0.00   540.35     0  02:41           0         5.1       0.015
  YS02001580           JUNCTION      0.00    74.54     0  01:59           0     0.00411       1.733
  YS02001583           JUNCTION      0.00   131.55     0  01:59           0      0.0153      -4.147
  YS02001586           JUNCTION    987.05   987.05     0  02:15        2.08         2.1       0.053
  YS02001590           JUNCTION      0.00   323.33     0  02:35           0        1.46      -0.019
  YS02001593           JUNCTION      0.00   319.79     0  02:35           0        1.46       0.013
  YS02001596           JUNCTION      0.00   317.96     0  02:33           0        1.46      -0.022
  YS02001600           JUNCTION      0.00   317.99     0  02:19           0        1.46       0.016
  YS02001601           JUNCTION   1734.96  2052.40     0  02:14        2.85        4.31       0.024
  YS02001602           JUNCTION      0.00   502.37     0  01:58           0        2.41       0.018
  YS02001605           JUNCTION      0.00   501.70     0  01:58           0        2.26       0.028
  YS02001607           JUNCTION      0.00   501.08     0  01:58           0        2.26       0.086
  YS02001610           JUNCTION      0.00   952.76     0  02:16           0        2.71       0.090
  YS02001613           JUNCTION      0.00   616.73     0  02:16           0        2.12       0.086
  YS02001616           JUNCTION      0.00   616.57     0  02:16           0        2.12       0.019
  YS02001619           JUNCTION   1753.81  1753.81     0  02:15        3.35        5.01      -0.001
  YS02001622           JUNCTION      0.00  1053.91     0  02:16           0        4.54       0.003
  YS02001625           JUNCTION      0.00  1504.02     0  02:16           0        4.91       0.201
  YS02001629           JUNCTION      0.00   903.26     0  02:02           0        3.53       0.015
  YS02001633           JUNCTION   1305.34  1305.34     0  02:14        2.09        5.18       0.066
  YS02001641           JUNCTION      0.00  1280.90     0  02:02           0        4.74       0.063
  YS02001644           JUNCTION   1163.76  2009.72     0  02:13        1.81        6.57       0.051
  YS02001647           JUNCTION      0.00  1636.89     0  02:02           0        5.54       0.009
  YS02001649           JUNCTION      0.00  1801.10     0  02:01           0        7.17       0.003
  YS02001652           JUNCTION      0.00  1155.46     0  02:13           0        1.67      -0.054
  YS02001655           JUNCTION      0.15  1155.09     0  02:13     0.00443        1.66      -0.027
  YS02001658           JUNCTION      0.00  1156.08     0  02:13           0        1.66      -0.040
  YS02001661           JUNCTION      0.00  1155.09     0  02:13           0        1.66       0.009
  YS02001664           JUNCTION   1140.56  1140.56     0  02:13        1.66        1.66      -0.011
  YS02001745           JUNCTION    719.67   719.67     0  02:13       0.998           1       0.143
  YS02001748           JUNCTION      0.04   728.71     0  02:13      0.0013           1      -0.258
  YS02001751           JUNCTION      0.01   729.40     0  02:13    0.000317        1.01       0.067
  YS02001754           JUNCTION      0.26   729.96     0  02:13     0.00749        1.02      -0.127
  YS02001757           JUNCTION      0.00  3059.91     0  02:11           0        11.2       0.008
  YS02001759           JUNCTION   1001.43  1333.97     0  02:13        1.38        3.01      -0.015
  YS02001762           JUNCTION      0.00   689.23     0  02:07           0        1.63      -0.011
  YS02001765           JUNCTION      0.00   689.83     0  02:07           0        1.63      -0.000
  YS02001767           JUNCTION      0.54   690.14     0  02:07      0.0154        1.62       0.015
  YS02001770           JUNCTION   1404.55  1404.55     0  02:13         2.1        2.15      -0.016
  YS02001774           JUNCTION      0.00   850.66     0  02:15           0       0.527       0.231
  YS02001779           JUNCTION      0.01   850.79     0  02:15    0.000144       0.479      -0.082
  YS02001783           JUNCTION      0.00  1169.00     0  02:10           0        4.41       0.006
  YS02001784           JUNCTION      1.06  1168.96     0  02:10      0.0305        4.44       0.012
  YS02001786           JUNCTION      0.06  1170.17     0  02:10     0.00162        4.44       0.017
  YS02001788           JUNCTION      0.07  1171.57     0  02:10     0.00204        4.45       0.007
  YS02001790           JUNCTION      0.15  1179.71     0  02:09     0.00446        4.45       0.014
  YS02001791           JUNCTION      0.00  1306.84     0  02:12           0        4.45      -0.026
  YS02001793           JUNCTION      0.00  1247.75     0  02:09           0        4.45       0.002
  YS02001882           JUNCTION      0.00    28.95     0  02:01           0      0.0129       4.491
  YS02001884           JUNCTION      0.00    53.65     0  02:01           0      0.0491       5.154
  YS02001887           JUNCTION   1075.25  1075.97     0  02:13        1.44        1.47       0.307
  YS02001890           JUNCTION      0.00  1076.37     0  02:13           0        1.43       0.348
  YS02001895           JUNCTION      0.00   517.48     0  02:13           0        1.22       0.142
  YS02001898           JUNCTION      0.00   517.60     0  02:14           0        1.21      -0.013
  YS02001901           JUNCTION      0.00   518.58     0  02:10           0        1.22       0.272
  YS02001904           JUNCTION      0.00   522.99     0  02:10           0        1.22       0.234
  YS02001907           JUNCTION      0.00  2663.12     0  02:14           0        4.41       0.424
  YS02001910           JUNCTION      0.00  1877.07     0  02:14           0        3.13       0.228
  YS02001915           JUNCTION   1257.09  1876.32     0  02:14           2        3.16       0.053
  YS02001918           JUNCTION      0.00   620.08     0  02:14           0        1.19       0.005
  YS02001920           JUNCTION      2.87   620.00     0  02:14      0.0827        1.17       0.087
  YS02001923           JUNCTION      0.04   615.93     0  02:14     0.00109        1.08       0.000
  YS02001926           JUNCTION      0.05   616.21     0  02:14      0.0015        1.06      -0.001
  YS02001929           JUNCTION    614.23   614.23     0  02:14        1.05        1.05      -0.093
  YS02006553           JUNCTION      0.00   809.08     0  02:32           0        2.47       0.481
  YS02006556           JUNCTION      0.00   810.03     0  02:32           0        2.48       0.333
  YS02006558           JUNCTION   1445.45  1445.45     0  02:13        2.11         4.5       0.079
  YS02006561           JUNCTION      0.00  1171.76     0  02:10           0        4.41      -0.003
  YS02163301           JUNCTION      0.00   902.52     0  02:01           0        3.53       0.045
  YS02163601           JUNCTION      0.11  1283.82     0  02:02     0.00317        4.73       0.109
  YS02164001           JUNCTION      0.00  1282.47     0  02:02           0        4.73       0.049
  CC-1                 OUTFALL       0.00   683.00     0  00:00           0        3.61       0.000
  CC-2                 OUTFALL       0.00   683.00     0  00:00           0        3.37       0.000
  JK-1                 OUTFALL       0.00  1000.00     0  00:00           0        2.74       0.000
  JK-2                 OUTFALL       0.00  1000.00     0  00:00           0       0.281       0.000
  WSC                  OUTFALL       0.00   558.43     0  02:43           0        5.61       0.000
  CC-storage           STORAGE       0.00  3060.98     0  02:11           0        13.4      -0.053
  JK-storage           STORAGE       0.00  1247.63     0  02:27           0         4.6      -0.034
  
  
  **********************
  Node Surcharge Summary
  **********************
  
  Surcharging occurs when water rises above the top of the highest conduit.
  ---------------------------------------------------------------------
                                               Max. Height   Min. Depth
                                   Hours       Above Crown    Below Rim
  Node                 Type      Surcharged         Meters       Meters
  ---------------------------------------------------------------------
  WS02004404           JUNCTION        0.04          0.042        2.738
  WS02006109           JUNCTION        2.13          0.341        1.479
  WS02006110           JUNCTION        0.78          0.285        1.565
  WS02006112           JUNCTION        1.04          0.095        1.585
  WS02006228           JUNCTION        2.13          0.423        1.777
  WS02006229           JUNCTION        2.13          0.510        1.940
  WS02006230           JUNCTION        0.79          0.456        1.114
  WS02006231           JUNCTION        0.96          0.581        0.949
  WS02006232           JUNCTION        2.15          0.973        0.507
  WS02006234           JUNCTION        1.23          1.240        0.000
  WS02006235           JUNCTION        2.08          1.290        0.000
  WS02006238           JUNCTION        2.13          1.430        0.000
  WS02006239           JUNCTION        2.10          1.290        0.000
  WS02006240           JUNCTION        2.12          1.390        0.000
  WS02006242           JUNCTION        2.14          0.820        0.000
  WS02006243           JUNCTION        2.12          0.770        0.000
  WS02006245           JUNCTION        2.11          0.850        0.000
  WS02006247           JUNCTION        2.11          0.760        0.000
  WS02006248           JUNCTION        2.11          0.380        0.000
  WS02006249           JUNCTION        2.10          0.390        0.000
  WS02006251           JUNCTION        1.04          0.604        0.576
  WS02006252           JUNCTION        2.25          1.100        0.000
  WS02006256           JUNCTION        5.77          2.050        0.000
  YS02001580           JUNCTION        0.74          0.450        0.000
  YS02001583           JUNCTION        0.75          0.380        0.120
  YS02001586           JUNCTION        0.88          0.510        0.000
  YS02001590           JUNCTION        0.96          0.750        0.000
  YS02001593           JUNCTION        0.97          0.720        0.120
  YS02001596           JUNCTION        1.09          0.981        0.089
  YS02001600           JUNCTION        1.24          1.190        0.000
  YS02001601           JUNCTION        1.54          1.440        0.000
  YS02001602           JUNCTION        1.45          1.270        0.000
  YS02001605           JUNCTION        1.40          1.180        0.000
  YS02001607           JUNCTION        0.97          0.680        0.000
  YS02001610           JUNCTION        1.00          0.680        0.000
  YS02001613           JUNCTION        0.96          0.673        0.027
  YS02001616           JUNCTION        0.92          0.610        0.000
  YS02001619           JUNCTION        0.91          0.610        0.000
  YS02001622           JUNCTION        0.91          0.592        0.028
  YS02001625           JUNCTION        1.10          0.780        0.000
  YS02001629           JUNCTION        0.85          0.470        0.000
  YS02001633           JUNCTION        1.13          1.060        0.000
  YS02001641           JUNCTION        1.08          1.039        0.061
  YS02001644           JUNCTION        1.06          0.920        0.000
  YS02001647           JUNCTION        0.85          0.900        0.000
  YS02001649           JUNCTION        0.99          1.050        0.000
  YS02001652           JUNCTION        0.79          1.130        0.000
  YS02001655           JUNCTION        0.62          1.200        0.000
  YS02001658           JUNCTION        0.37          1.300        0.000
  YS02001661           JUNCTION        0.12          0.210        1.180
  YS02001748           JUNCTION        0.30          0.585        0.605
  YS02001751           JUNCTION        0.50          0.646        0.554
  YS02001754           JUNCTION        0.72          0.767        0.383
  YS02001757           JUNCTION        1.06          1.210        0.000
  YS02001759           JUNCTION        0.98          1.210        0.000
  YS02001762           JUNCTION        0.95          1.150        0.000
  YS02001765           JUNCTION        0.91          1.100        0.000
  YS02001767           JUNCTION        0.87          1.030        0.000
  YS02001770           JUNCTION        0.84          0.920        0.000
  YS02001774           JUNCTION        0.93          1.050        0.000
  YS02001779           JUNCTION        0.70          0.680        0.000
  YS02001783           JUNCTION        0.64          0.475        1.125
  YS02001784           JUNCTION        0.61          0.349        1.141
  YS02001786           JUNCTION        0.50          0.095        1.335
  YS02001882           JUNCTION        0.58          0.707        0.123
  YS02001884           JUNCTION        0.59          0.757        0.113
  YS02001887           JUNCTION        0.62          0.950        0.000
  YS02001890           JUNCTION        0.64          0.760        0.000
  YS02001895           JUNCTION        0.57          0.646        0.104
  YS02001898           JUNCTION        0.56          0.661        0.079
  YS02001901           JUNCTION        0.61          0.791        0.079
  YS02001904           JUNCTION        0.60          0.744        0.106
  YS02001907           JUNCTION        0.88          0.950        0.000
  YS02001910           JUNCTION        0.67          0.990        0.110
  YS02001915           JUNCTION        0.57          1.000        0.000
  YS02001918           JUNCTION        0.48          0.810        0.000
  YS02001920           JUNCTION        0.50          1.127        0.013
  YS02001923           JUNCTION        0.19          0.820        0.000
  YS02001926           JUNCTION        0.23          0.900        0.000
  YS02001929           JUNCTION        0.07          0.780        0.000
  YS02006553           JUNCTION        0.89          1.025        0.165
  YS02006556           JUNCTION        0.77          0.969        0.381
  YS02006558           JUNCTION        0.75          1.310        0.090
  YS02006561           JUNCTION        0.45          0.151        0.999
  YS02163301           JUNCTION        1.11          1.030        0.000
  YS02163601           JUNCTION        1.17          1.080        0.000
  YS02164001           JUNCTION        1.09          1.062        0.038
  
  
  *********************
  Node Flooding Summary
  *********************
  
  Flooding refers to all water that overflows a node, whether it ponds or not.
  --------------------------------------------------------------------------
                                                             Total   Maximum
                                 Maximum   Time of Max       Flood    Ponded
                        Hours       Rate    Occurrence      Volume     Depth
  Node                 Flooded       LPS   days hr:min    10^6 ltr    Meters
  --------------------------------------------------------------------------
  WS02006234              0.01      0.12      0  03:15       0.000     0.000
  WS02006235              0.01      0.23      0  03:15       0.000     0.000
  WS02006238              0.01      0.22      0  03:15       0.000     0.000
  WS02006239              0.01      0.10      0  03:15       0.000     0.000
  WS02006240              0.01      0.12      0  03:15       0.000     0.000
  WS02006242              0.01      8.30      0  03:15       0.000     0.000
  WS02006243              0.01      0.06      0  03:15       0.000     0.000
  WS02006245              0.01      0.06      0  03:15       0.000     0.000
  WS02006247              0.01      0.04      0  03:15       0.000     0.000
  WS02006248              0.02     15.88      0  03:15       0.000     0.000
  WS02006249              1.01    105.83      0  03:15       0.238     0.000
  WS02006252              0.01    245.63      0  00:00       0.000     0.000
  WS02006256              1.34    293.19      0  00:00       0.453     0.000
  YS02001580              0.01     38.80      0  01:59       0.000     0.000
  YS02001586              0.60    669.40      0  02:15       0.623     0.000
  YS02001590              0.01      5.84      0  01:59       0.000     0.000
  YS02001600              0.01     20.94      0  02:35       0.000     0.000
  YS02001601              0.81   1654.30      0  02:14       1.896     0.000
  YS02001602              0.71     61.96      0  02:07       0.147     0.000
  YS02001605              0.01      6.53      0  02:35       0.000     0.000
  YS02001607              0.01      0.15      0  02:35       0.000     0.000
  YS02001610              0.64    952.63      0  02:16       1.045     0.000
  YS02001616              0.02     11.74      0  02:35       0.000     0.000
  YS02001619              0.08    103.98      0  02:14       0.018     0.000
  YS02001625              0.62   1503.83      0  02:16       1.813     0.000
  YS02001629              0.21    215.94      0  02:14       0.065     0.000
  YS02001633              0.01      0.35      0  02:10       0.000     0.000
  YS02001644              0.32   2009.15      0  02:13       1.052     0.000
  YS02001647              0.01      1.14      0  02:10       0.000     0.000
  YS02001649              0.01     36.35      0  02:05       0.000     0.000
  YS02001652              0.01      3.13      0  02:10       0.000     0.000
  YS02001655              0.01      3.53      0  02:10       0.000     0.000
  YS02001658              0.01      2.96      0  02:10       0.000     0.000
  YS02001757              0.01      1.29      0  02:10       0.000     0.000
  YS02001759              0.01      1.61      0  02:10       0.000     0.000
  YS02001762              0.01      5.07      0  02:04       0.000     0.000
  YS02001765              0.01      6.79      0  02:04       0.000     0.000
  YS02001767              0.01      6.33      0  02:04       0.000     0.000
  YS02001770              0.07    241.51      0  02:13       0.036     0.000
  YS02001774              0.01     11.70      0  02:04       0.000     0.000
  YS02001779              0.28    850.62      0  02:15       0.459     0.000
  YS02001887              0.01      0.21      0  02:10       0.000     0.000
  YS02001890              0.24    559.48      0  02:13       0.209     0.000
  YS02001907              0.43   2662.04      0  02:14       1.983     0.000
  YS02001918              0.01    100.00      0  02:05       0.001     0.000
  YS02001923              0.01     31.89      0  02:05       0.000     0.000
  YS02001926              0.01     47.86      0  02:04       0.000     0.000
  YS02001929              0.01    221.33      0  02:04       0.001     0.000
  YS02163301              0.01      0.70      0  02:35       0.000     0.000
  YS02163601              0.01     19.98      0  02:35       0.000     0.000
  
  
  **********************
  Storage Volume Summary
  **********************
  
  ------------------------------------------------------------------------------------------------
                         Average    Avg   Evap  Exfil     Maximum    Max    Time of Max    Maximum
                          Volume   Pcnt   Pcnt   Pcnt      Volume   Pcnt     Occurrence    Outflow
  Storage Unit           1000 m³   Full   Loss   Loss     1000 m³   Full    days hr:min        LPS
  ------------------------------------------------------------------------------------------------
  CC-storage               2.838   44.3    0.0    0.0       5.225   81.5       0  02:38    1783.53
  JK-storage               0.165   56.7    0.0    0.0       0.213   73.1       0  02:06    2300.00
  
  
  ***********************
  Outfall Loading Summary
  ***********************
  
  -----------------------------------------------------------
                         Flow       Avg       Max       Total
                         Freq      Flow      Flow      Volume
  Outfall Node           Pcnt       LPS       LPS    10^6 ltr
  -----------------------------------------------------------
  CC-1                  20.07    683.00    683.00       3.615
  CC-2                  18.65    683.00    683.00       3.367
  JK-1                  11.74   1000.00   1000.00       2.736
  JK-2                   1.11   1000.00   1000.00       0.281
  WSC                   99.96    255.52    558.43       5.612
  -----------------------------------------------------------
  System                30.31   3621.52   3923.59      15.611
  
  
  ********************
  Link Flow Summary
  ********************
  
  -----------------------------------------------------------------------------
                                 Maximum  Time of Max   Maximum    Max/    Max/
                                  |Flow|   Occurrence   |Veloc|    Full    Full
  Link                 Type          LPS  days hr:min     m/sec    Flow   Depth
  -----------------------------------------------------------------------------
  1                    CONDUIT    558.43     0  02:43      2.83    0.19    0.30
  WS02003060WS02003069 CONDUIT    556.79     0  02:42      1.64    0.22    0.34
  WS02003066WSF200     CONDUIT    540.35     0  02:41      2.86    0.09    0.22
  WS02003067WS02003066 CONDUIT    540.28     0  02:41      1.21    0.17    0.42
  WS02003069WS02003072 CONDUIT    556.79     0  02:42      1.37    0.27    0.39
  WS02003072WS02003073 CONDUIT    556.70     0  02:43      1.44    1.20    0.37
  WS02004401WS02004402 CONDUIT    540.44     0  02:31      0.98    0.65    0.89
  WS02004402WS02004403 CONDUIT    542.24     0  02:37      0.97    0.78    0.91
  WS02004403WS02004404 CONDUIT    561.67     0  02:39      0.92    0.41    0.96
  WS02004404WS02004405 CONDUIT    608.95     0  02:35      1.08    5.97    0.98
  WS02004405WS02004406 CONDUIT    546.07     0  02:37      0.99    1.08    0.96
  WS02004406WS02004407 CONDUIT    541.75     0  02:37      1.04    0.24    0.63
  WS02004407WS02004409 CONDUIT    541.10     0  02:38      1.54    0.19    0.48
  WS02004409WS02004410 CONDUIT    540.71     0  02:33      1.00    0.70    0.68
  WS02004410WS02004411 CONDUIT    540.74     0  02:39      0.94    0.74    0.69
  WS02004411WS02004412 CONDUIT    540.37     0  02:40      0.93    0.77    0.70
  WS02004412WS02004413 CONDUIT    540.65     0  02:40      0.82    0.36    0.78
  WS02004413WS02003067 CONDUIT    540.22     0  02:40      1.11    0.23    0.59
  WS02006109WS02006110 CONDUIT    561.66     0  03:15      1.12    1.08    1.00
  WS02006110WS02006113 CONDUIT    569.87     0  03:15      1.37    0.52    0.79
  WS02006111WS02006112 CONDUIT    552.59     0  03:15      1.81    0.26    0.67
  WS02006112WS02006115 CONDUIT    551.45     0  03:15      0.79    0.33    0.88
  WS02006113WS02006111 CONDUIT    575.83     0  03:15      2.49    0.69    0.47
  WS02006115WS02006116 CONDUIT    541.80     0  03:15      0.97    0.70    0.79
  WS02006116WS02004401 CONDUIT    540.59     0  02:34      0.98    0.75    0.87
  WS02006228WS02006109 CONDUIT    559.82     0  03:15      1.11    2.45    1.00
  WS02006229WS02006228 CONDUIT    558.99     0  03:15      1.14    1.85    1.00
  WS02006230WS02006229 CONDUIT    563.46     0  03:15      1.46   12.54    1.00
  WS02006231WS02006230 CONDUIT    582.32     0  02:20      1.58    8.83    1.00
  WS02006232WS02006231 CONDUIT    581.48     0  02:41      1.52    1.22    1.00
  WS02006234WS02006232 CONDUIT    580.64     0  02:41      1.51    1.17    1.00
  WS02006235WS02006234 CONDUIT    575.87     0  02:41      1.50    6.08    1.00
  WS02006238WS02006235 CONDUIT    425.15     0  02:45      1.56    0.95    1.00
  WS02006239WS02006238 CONDUIT    426.07     0  02:45      1.11    1.36    1.00
  WS02006240WS02006239 CONDUIT    424.79     0  03:15      1.24    1.34    1.00
  WS02006242WS02006240 CONDUIT    424.92     0  03:15      1.13    1.69    1.00
  WS02006243WS02006242 CONDUIT    423.97     0  03:15      1.40    0.91    1.00
  WS02006245WS02006243 CONDUIT    423.17     0  03:15      1.45    1.25    1.00
  WS02006247WS02006245 CONDUIT    424.19     0  03:15      1.43    3.36    1.00
  WS02006248WS02006247 CONDUIT    423.74     0  03:15      1.44    0.92    1.00
  WS02006249WS02006248 CONDUIT    424.75     0  03:15      1.36    2.33    1.00
  WS02006251WS02006249 CONDUIT    459.02     0  00:00      1.99    1.32    1.00
  WS02006252WS02006251 CONDUIT    407.87     0  02:53     24.61    1.50    1.00
  WS02006256WS02006235 CONDUIT    289.21     0  01:46      4.23    3.06    1.00
  WSF200WS02003060     CONDUIT    540.76     0  02:41      2.07    0.12    0.28
  YS02001580YS02001583 CONDUIT     74.54     0  01:59      0.55    0.29    1.00
  YS02001583YS02001586 CONDUIT    131.55     0  01:59      0.54    0.20    1.00
  YS02001586YS02001590 CONDUIT    323.33     0  02:35      1.25    0.57    1.00
  YS02001590YS02001593 CONDUIT    319.79     0  02:35      1.13    2.01    1.00
  YS02001593YS02001596 CONDUIT    317.96     0  02:33      1.72    0.50    1.00
  YS02001596YS02001600 CONDUIT    317.99     0  02:19      1.27    0.62    1.00
  YS02001600YS02001601 CONDUIT    318.04     0  02:31      1.12    0.55    1.00
  YS02001601YS02001602 CONDUIT    502.37     0  01:58      1.78    1.81    1.00
  YS02001602YS02001605 CONDUIT    501.70     0  01:58      1.77   10.62    1.00
  YS02001605YS02001607 CONDUIT    501.08     0  01:58      1.77    2.75    1.00
  YS02001607YS02001610 CONDUIT    502.41     0  01:58      0.64    0.48    1.00
  YS02001610YS02001613 CONDUIT    616.58     0  02:16      0.79    0.71    1.00
  YS02001613YS02001616 CONDUIT    616.73     0  02:16      0.79    0.53    1.00
  YS02001616YS02001619 CONDUIT    616.57     0  02:16      0.79    1.07    1.00
  YS02001619YS02001622 CONDUIT   1053.91     0  02:16      1.34    1.55    1.00
  YS02001622YS02001625 CONDUIT   1053.52     0  02:15      1.34    0.56    1.00
  YS02001625YS02001629 CONDUIT    903.26     0  02:02      1.15    0.43    1.00
  YS02001629YS02163301 CONDUIT    902.52     0  02:01      1.15    1.11    1.00
  YS02001633YS02163601 CONDUIT   1283.71     0  02:02      1.63    1.35    1.00
  YS02001641YS02001644 CONDUIT   1281.21     0  02:02      1.63    4.14    1.00
  YS02001644YS02001647 CONDUIT   1636.89     0  02:02      2.12    0.96    1.00
  YS02001647YS02001649 CONDUIT   1636.20     0  02:02      2.27    0.86    1.00
  YS02001649YS02001757 CONDUIT   1780.78     0  02:03      2.32    1.08    1.00
  YS02001652YS02001649 CONDUIT   1155.83     0  02:13      1.47    0.57    1.00
  YS02001655YS02001652 CONDUIT   1155.46     0  02:13      1.47    0.56    1.00
  YS02001658YS02001655 CONDUIT   1154.94     0  02:13      1.84    0.49    1.00
  YS02001661YS02001658 CONDUIT   1156.08     0  02:13      2.18    0.45    1.00
  YS02001664YS02001661 CONDUIT   1155.09     0  02:13      2.10    0.36    0.88
  YS02001745YS02001748 CONDUIT    728.67     0  02:13      2.02    0.28    0.97
  YS02001748YS02001751 CONDUIT    729.39     0  02:13      1.61    0.37    1.00
  YS02001751YS02001754 CONDUIT    729.70     0  02:13      1.43    0.35    1.00
  YS02001754YS02001757 CONDUIT    731.19     0  02:13      0.93    0.29    1.00
  YS02001757CaochengTiaoxuchi CONDUIT   3060.98     0  02:11      3.90    1.32    1.00
  YS02001759YS02001757 CONDUIT   1333.71     0  02:13      1.70    0.95    1.00
  YS02001762YS02001759 CONDUIT    690.49     0  02:07      0.88    0.80    1.00
  YS02001765YS02001762 CONDUIT    689.23     0  02:07      0.88    0.65    1.00
  YS02001767YS02001765 CONDUIT    689.83     0  02:07      0.88    0.87    1.00
  YS02001770YS02001767 CONDUIT    689.61     0  02:07      0.88    2.73    1.00
  YS02001774YS02001770 CONDUIT    850.66     0  02:15      1.08    0.54    1.00
  YS02001779YS02001774 CONDUIT    850.78     0  02:15      1.08    0.43    1.00
  YS02001783YS02001784 CONDUIT   1167.90     0  02:10      2.32    1.61    1.00
  YS02001784YS02001785 CONDUIT   1170.12     0  02:10      2.33    2.72    1.00
  YS02001786YS02001788 CONDUIT   1171.50     0  02:10      2.50    2.26    0.89
  YS02001788YS02001790 CONDUIT   1179.55     0  02:09      2.72    0.87    0.85
  YS02001790YS02001791 CONDUIT   1306.84     0  02:12      3.45    1.42    0.71
  YS02001791YS02001793 CONDUIT   1247.75     0  02:09      6.71    0.54    0.45
  YS02001793JiankangQianchi CONDUIT   1247.63     0  02:27      2.51    0.10    0.65
  YS02001882YS02001884 CONDUIT     28.95     0  02:01      0.13    0.03    1.00
  YS02001884YS02001887 CONDUIT     53.65     0  02:01      0.10    0.07    1.00
  YS02001887YS02001890 CONDUIT   1076.37     0  02:13      1.37    1.84    1.00
  YS02001890YS02001895 CONDUIT    517.48     0  02:13      0.66    0.24    1.00
  YS02001895YS02001898 CONDUIT    517.60     0  02:14      0.66    0.90    1.00
  YS02001898YS02001901 CONDUIT    518.58     0  02:10      0.66    0.33    1.00
  YS02001901YS02001904 CONDUIT    522.99     0  02:10      0.67    0.81    1.00
  YS02001904YS02001907 CONDUIT    529.90     0  02:10      0.67    0.19    1.00
  YS02001907YS02006553 CONDUIT    809.08     0  02:32      0.90    0.95    1.00
  YS02001910YS02001907 CONDUIT   1876.94     0  02:14      2.39    1.06    1.00
  YS02001915YS02001910 CONDUIT   1877.07     0  02:14      2.39    0.93    1.00
  YS02001918YS02001915 CONDUIT    620.75     0  02:14      0.79    0.34    1.00
  YS02001920YS02001918 CONDUIT    620.08     0  02:14      0.79    0.60    1.00
  YS02001923YS02001920 CONDUIT    617.13     0  02:14      0.79    0.28    1.00
  YS02001926YS02001923 CONDUIT    615.89     0  02:14      0.95    0.88    1.00
  YS02001929YS02001926 CONDUIT    616.16     0  02:14      1.09    0.29    1.00
  YS02006553YS02006556 CONDUIT    810.03     0  02:32      1.03    0.69    1.00
  YS02006556YS02006558 CONDUIT    812.30     0  02:32      1.03    0.64    1.00
  YS02006558YS02006561 CONDUIT   1171.76     0  02:10      4.14    2.59    1.00
  YS02006561YS02001783 CONDUIT   1169.00     0  02:10      2.33    0.61    1.00
  YS02163301YS02001633 CONDUIT    902.81     0  02:01      1.15    0.85    1.00
  YS02163601YS02164001 CONDUIT   1282.47     0  02:02      1.63    1.14    1.00
  YS02164001YS02001641 CONDUIT   1280.90     0  02:02      1.63    1.75    1.00
  CC-R1                PUMP       683.00     0  00:00              1.00
  CC-R2                PUMP       683.00     0  00:00              1.00
  CC-S1                PUMP       200.00     0  00:00              1.00
  CC-S2                PUMP       200.00     0  00:00              1.00
  JK-R1                PUMP      1000.00     0  00:00              1.00
  JK-R2                PUMP      1000.00     0  00:00              1.00
  JK-S                 PUMP       300.00     0  00:00              1.00
  
  
  ***************************
  Flow Classification Summary
  ***************************
  
  -------------------------------------------------------------------------------------
                      Adjusted    ---------- Fraction of Time in Flow Class ---------- 
                       /Actual         Up    Down  Sub   Sup   Up    Down  Norm  Inlet 
  Conduit               Length    Dry  Dry   Dry   Crit  Crit  Crit  Crit  Ltd   Ctrl  
  -------------------------------------------------------------------------------------
  1                       1.00   0.00  0.00  0.00  0.00  1.00  0.00  0.00  0.38  0.00
  WS02003060WS02003069    1.00   0.00  0.00  0.00  0.98  0.02  0.00  0.00  0.68  0.00
  WS02003066WSF200        1.00   0.13  0.00  0.00  0.00  0.87  0.00  0.00  0.75  0.00
  WS02003067WS02003066    1.00   0.10  0.02  0.00  0.88  0.00  0.00  0.00  0.00  0.00
  WS02003069WS02003072    1.00   0.00  0.00  0.00  0.99  0.01  0.00  0.00  0.71  0.00
  WS02003072WS02003073    1.00   0.00  0.00  0.00  0.00  0.00  0.00  1.00  0.00  0.00
  WS02004401WS02004402    1.00   0.02  0.00  0.00  0.98  0.00  0.00  0.00  0.00  0.00
  WS02004402WS02004403    1.00   0.02  0.00  0.00  0.97  0.00  0.00  0.00  0.00  0.00
  WS02004403WS02004404    1.00   0.00  0.03  0.00  0.97  0.00  0.00  0.00  0.00  0.00
  WS02004404WS02004405    1.00   0.00  0.00  0.00  1.00  0.00  0.00  0.00  0.01  0.00
  WS02004405WS02004406    1.00   0.00  0.00  0.00  1.00  0.00  0.00  0.00  0.00  0.00
  WS02004406WS02004407    1.00   0.00  0.05  0.00  0.95  0.00  0.00  0.00  0.00  0.00
  WS02004407WS02004409    1.00   0.05  0.00  0.00  0.94  0.01  0.00  0.00  0.94  0.00
  WS02004409WS02004410    1.00   0.05  0.00  0.00  0.95  0.00  0.00  0.00  0.03  0.00
  WS02004410WS02004411    1.00   0.05  0.00  0.00  0.95  0.00  0.00  0.00  0.01  0.00
  WS02004411WS02004412    1.00   0.05  0.00  0.00  0.95  0.00  0.00  0.00  0.00  0.00
  WS02004412WS02004413    1.00   0.05  0.00  0.00  0.94  0.00  0.00  0.00  0.01  0.00
  WS02004413WS02003067    1.00   0.06  0.04  0.00  0.00  0.00  0.90  0.00  0.00  0.00
  WS02006109WS02006110    1.00   0.00  0.01  0.00  0.98  0.00  0.01  0.00  0.00  0.00
  WS02006110WS02006113    1.00   0.01  0.01  0.00  0.98  0.00  0.00  0.00  0.00  0.00
  WS02006111WS02006112    1.00   0.02  0.00  0.00  0.98  0.00  0.00  0.00  0.98  0.00
  WS02006112WS02006115    1.00   0.02  0.00  0.00  0.97  0.00  0.00  0.00  0.00  0.00
  WS02006113WS02006111    1.00   0.02  0.00  0.00  0.00  0.98  0.00  0.00  0.13  0.00
  WS02006115WS02006116    1.00   0.02  0.00  0.00  0.97  0.00  0.00  0.01  0.00  0.00
  WS02006116WS02004401    1.00   0.02  0.00  0.00  0.98  0.00  0.00  0.00  0.00  0.00
  WS02006228WS02006109    1.00   0.00  0.00  0.00  1.00  0.00  0.00  0.00  0.00  0.00
  WS02006229WS02006228    1.00   0.00  0.00  0.00  0.99  0.00  0.00  0.01  0.00  0.00
  WS02006230WS02006229    1.00   0.00  0.00  0.00  0.99  0.00  0.00  0.01  0.01  0.00
  WS02006231WS02006230    1.00   0.00  0.00  0.00  0.28  0.00  0.72  0.00  0.00  0.00
  WS02006232WS02006231    1.00   0.00  0.00  0.00  0.98  0.00  0.01  0.00  0.00  0.00
  WS02006234WS02006232    1.00   0.00  0.00  0.00  1.00  0.00  0.00  0.00  0.13  0.00
  WS02006235WS02006234    1.00   0.00  0.00  0.00  0.83  0.00  0.17  0.00  0.00  0.00
  WS02006238WS02006235    1.00   0.00  0.00  0.00  1.00  0.00  0.00  0.00  0.00  0.00
  WS02006239WS02006238    1.00   0.00  0.00  0.00  1.00  0.00  0.00  0.00  0.27  0.00
  WS02006240WS02006239    1.00   0.00  0.00  0.00  0.64  0.00  0.00  0.36  0.03  0.00
  WS02006242WS02006240    1.00   0.00  0.00  0.00  0.99  0.00  0.01  0.00  0.00  0.00
  WS02006243WS02006242    1.00   0.00  0.00  0.00  0.99  0.00  0.00  0.01  0.51  0.00
  WS02006245WS02006243    1.00   0.00  0.00  0.00  0.69  0.00  0.00  0.31  0.01  0.00
  WS02006247WS02006245    1.00   0.00  0.00  0.00  0.98  0.00  0.00  0.02  0.00  0.00
  WS02006248WS02006247    1.00   0.00  0.00  0.00  0.99  0.00  0.00  0.01  0.25  0.00
  WS02006249WS02006248    1.00   0.00  0.00  0.00  0.48  0.00  0.52  0.00  0.00  0.00
  WS02006251WS02006249    1.00   0.00  0.00  0.00  1.00  0.00  0.00  0.00  0.53  0.00
  WS02006252WS02006251    1.00   0.00  0.55  0.00  0.13  0.00  0.32  0.00  0.00  0.00
  WS02006256WS02006235    1.00   0.00  0.00  0.00  0.99  0.01  0.00  0.00  0.00  0.00
  WSF200WS02003060        1.00   0.00  0.13  0.00  0.26  0.62  0.00  0.00  0.48  0.00
  YS02001580YS02001583    1.00   0.24  0.54  0.00  0.21  0.00  0.00  0.00  0.64  0.00
  YS02001583YS02001586    1.00   0.41  0.32  0.00  0.26  0.00  0.00  0.00  0.64  0.00
  YS02001586YS02001590    1.00   0.13  0.00  0.00  0.45  0.04  0.00  0.38  0.36  0.00
  YS02001590YS02001593    1.00   0.13  0.01  0.00  0.14  0.00  0.73  0.00  0.00  0.00
  YS02001593YS02001596    1.00   0.13  0.00  0.00  0.16  0.01  0.00  0.70  0.02  0.00
  YS02001596YS02001600    1.00   0.14  0.00  0.00  0.21  0.01  0.00  0.64  0.04  0.00
  YS02001600YS02001601    1.00   0.13  0.01  0.00  0.86  0.00  0.00  0.00  0.59  0.00
  YS02001601YS02001602    1.00   0.13  0.01  0.00  0.87  0.00  0.00  0.00  0.00  0.00
  YS02001602YS02001605    1.00   0.13  0.00  0.00  0.86  0.00  0.00  0.00  0.00  0.00
  YS02001605YS02001607    1.00   0.14  0.00  0.00  0.86  0.00  0.00  0.00  0.00  0.00
  YS02001607YS02001610    1.00   0.13  0.01  0.00  0.86  0.00  0.00  0.00  0.01  0.00
  YS02001610YS02001613    1.00   0.13  0.00  0.00  0.87  0.00  0.00  0.00  0.00  0.00
  YS02001613YS02001616    1.00   0.13  0.00  0.00  0.87  0.00  0.00  0.00  0.00  0.00
  YS02001616YS02001619    1.00   0.13  0.00  0.00  0.87  0.00  0.00  0.00  0.00  0.00
  YS02001619YS02001622    1.00   0.13  0.00  0.00  0.87  0.00  0.00  0.00  0.27  0.00
  YS02001622YS02001625    1.00   0.13  0.00  0.00  0.87  0.00  0.00  0.00  0.04  0.00
  YS02001625YS02001629    1.00   0.13  0.05  0.00  0.18  0.00  0.64  0.00  0.00  0.00
  YS02001629YS02163301    1.00   0.15  0.01  0.00  0.84  0.00  0.00  0.00  0.00  0.00
  YS02001633YS02163601    1.00   0.00  0.01  0.00  0.99  0.00  0.00  0.00  0.15  0.00
  YS02001641YS02001644    1.00   0.00  0.01  0.00  0.99  0.00  0.00  0.00  0.00  0.00
  YS02001644YS02001647    1.00   0.00  0.17  0.00  0.83  0.00  0.00  0.00  0.00  0.00
  YS02001647YS02001649    1.00   0.00  0.17  0.00  0.59  0.24  0.00  0.00  0.54  0.00
  YS02001649YS02001757    1.00   0.00  0.00  0.00  0.87  0.13  0.00  0.00  0.41  0.00
  YS02001652YS02001649    1.00   0.00  0.00  0.00  0.97  0.03  0.00  0.00  0.71  0.00
  YS02001655YS02001652    1.00   0.00  0.00  0.00  0.21  0.01  0.00  0.78  0.04  0.00
  YS02001658YS02001655    1.00   0.00  0.14  0.00  0.69  0.17  0.00  0.00  0.66  0.00
  YS02001661YS02001658    1.00   0.14  0.00  0.00  0.53  0.33  0.00  0.00  0.67  0.00
  YS02001664YS02001661    1.00   0.13  0.00  0.00  0.79  0.08  0.00  0.00  0.84  0.00
  YS02001745YS02001748    1.00   0.00  0.00  0.00  0.13  0.00  0.00  0.87  0.04  0.00
  YS02001748YS02001751    1.00   0.00  0.00  0.00  0.85  0.15  0.00  0.00  0.73  0.00
  YS02001751YS02001754    1.00   0.00  0.00  0.00  0.18  0.01  0.00  0.81  0.03  0.00
  YS02001754YS02001757    1.00   0.00  0.00  0.00  1.00  0.00  0.00  0.00  0.78  0.00
  YS02001757CaochengTiaoxuchi    1.00   0.00  0.00  0.00  1.00  0.00  0.00  0.00  0.60  0.00
  YS02001759YS02001757    1.00   0.00  0.00  0.00  1.00  0.00  0.00  0.00  0.49  0.00
  YS02001762YS02001759    1.00   0.00  0.00  0.00  1.00  0.00  0.00  0.00  0.06  0.00
  YS02001765YS02001762    1.00   0.00  0.00  0.00  1.00  0.00  0.00  0.00  0.63  0.00
  YS02001767YS02001765    1.00   0.00  0.00  0.00  1.00  0.00  0.00  0.00  0.01  0.00
  YS02001770YS02001767    1.00   0.00  0.00  0.00  1.00  0.00  0.00  0.00  0.00  0.00
  YS02001774YS02001770    1.00   0.00  0.13  0.00  0.70  0.00  0.16  0.00  0.03  0.00
  YS02001779YS02001774    1.00   0.00  0.00  0.00  1.00  0.00  0.00  0.00  0.74  0.00
  YS02001783YS02001784    1.00   0.00  0.18  0.00  0.82  0.00  0.00  0.00  0.55  0.00
  YS02001784YS02001785    1.00   0.00  0.00  0.00  1.00  0.00  0.00  0.00  0.16  0.00
  YS02001786YS02001788    1.00   0.00  0.00  0.00  0.80  0.20  0.00  0.00  0.00  0.00
  YS02001788YS02001790    1.00   0.00  0.00  0.00  0.22  0.78  0.00  0.00  0.79  0.00
  YS02001790YS02001791    1.00   0.00  0.00  0.00  0.01  0.99  0.00  0.00  0.16  0.00
  YS02001791YS02001793    1.00   0.00  0.00  0.00  0.00  1.00  0.00  0.00  0.01  0.00
  YS02001793JiankangQianchi    1.00   0.00  0.00  0.00  0.98  0.02  0.00  0.00  0.95  0.00
  YS02001882YS02001884    1.00   0.15  0.01  0.00  0.84  0.00  0.00  0.00  0.00  0.00
  YS02001884YS02001887    1.00   0.06  0.05  0.00  0.89  0.00  0.00  0.00  0.00  0.00
  YS02001887YS02001890    1.00   0.00  0.00  0.00  0.97  0.00  0.03  0.00  0.00  0.00
  YS02001890YS02001895    1.00   0.00  0.16  0.00  0.84  0.00  0.00  0.00  0.00  0.00
  YS02001895YS02001898    1.00   0.16  0.00  0.00  0.82  0.00  0.02  0.00  0.00  0.00
  YS02001898YS02001901    1.00   0.16  0.00  0.00  0.84  0.00  0.00  0.00  0.01  0.00
  YS02001901YS02001904    1.00   0.16  0.00  0.00  0.84  0.00  0.00  0.00  0.00  0.00
  YS02001904YS02001907    1.00   0.00  0.16  0.00  0.84  0.00  0.00  0.00  0.00  0.00
  YS02001907YS02006553    1.00   0.00  0.02  0.00  0.98  0.00  0.00  0.00  0.00  0.00
  YS02001910YS02001907    1.00   0.00  0.00  0.00  0.97  0.00  0.00  0.03  0.12  0.00
  YS02001915YS02001910    1.00   0.00  0.00  0.00  0.97  0.03  0.00  0.00  0.15  0.00
  YS02001918YS02001915    1.00   0.00  0.01  0.00  0.98  0.02  0.00  0.00  0.73  0.00
  YS02001920YS02001918    1.00   0.00  0.01  0.00  0.99  0.00  0.00  0.00  0.00  0.00
  YS02001923YS02001920    1.00   0.00  0.00  0.00  1.00  0.00  0.00  0.00  0.91  0.00
  YS02001926YS02001923    1.00   0.00  0.07  0.00  0.07  0.00  0.85  0.00  0.00  0.00
  YS02001929YS02001926    1.00   0.00  0.13  0.00  0.87  0.00  0.00  0.00  0.81  0.00
  YS02006553YS02006556    1.00   0.01  0.00  0.00  0.99  0.00  0.00  0.00  0.03  0.00
  YS02006556YS02006558    1.00   0.00  0.00  0.00  1.00  0.00  0.00  0.00  0.00  0.00
  YS02006558YS02006561    1.00   0.18  0.00  0.00  0.07  0.76  0.00  0.00  0.17  0.00
  YS02006561YS02001783    1.00   0.18  0.00  0.00  0.10  0.72  0.00  0.00  0.67  0.00
  YS02163301YS02001633    1.00   0.00  0.15  0.00  0.85  0.00  0.00  0.00  0.00  0.00
  YS02163601YS02164001    1.00   0.00  0.08  0.00  0.92  0.00  0.00  0.00  0.00  0.00
  YS02164001YS02001641    1.00   0.01  0.07  0.00  0.92  0.00  0.00  0.00  0.05  0.00
  
  
  *************************
  Conduit Surcharge Summary
  *************************
  
  ----------------------------------------------------------------------------
                                                           Hours        Hours 
                         --------- Hours Full --------   Above Full   Capacity
  Conduit                Both Ends  Upstream  Dnstream   Normal Flow   Limited
  ----------------------------------------------------------------------------
  WS02003072WS02003073        0.01      0.01      0.01      1.28         0.01
  WS02004403WS02004404        0.01      0.01      0.02      0.01         0.01
  WS02004404WS02004405        0.01      0.02      0.01      3.52         0.01
  WS02004405WS02004406        0.01      0.01      0.01      0.85         0.01
  WS02006109WS02006110        0.77      0.77      2.15      0.92         0.01
  WS02006110WS02006113        0.01      0.01      2.14      0.01         0.01
  WS02006111WS02006112        0.01      0.01      2.30      0.01         0.01
  WS02006112WS02006115        0.01      0.01      1.04      0.01         0.01
  WS02006228WS02006109        2.13      2.15      2.13      2.53         2.13
  WS02006229WS02006228        2.13      2.13      2.13      2.26         2.12
  WS02006230WS02006229        2.17      2.23      2.17      4.26         2.17
  WS02006231WS02006230        0.79      0.79      1.02      3.88         0.01
  WS02006232WS02006231        0.96      0.96      2.15      1.03         0.01
  WS02006234WS02006232        2.07      2.07      2.15      1.01         0.99
  WS02006235WS02006234        1.22      1.23      2.07      3.75         0.02
  WS02006238WS02006235        2.09      2.09      2.15      0.01         0.01
  WS02006239WS02006238        2.12      2.14      2.12      2.16         1.91
  WS02006240WS02006239        2.10      2.13      2.10      2.16         1.76
  WS02006242WS02006240        2.12      2.12      2.14      2.27         0.01
  WS02006243WS02006242        2.12      2.12      2.14      0.01         0.06
  WS02006245WS02006243        2.11      2.11      2.12      1.35         1.39
  WS02006247WS02006245        2.11      2.12      2.11      3.53         2.09
  WS02006248WS02006247        2.11      2.11      2.11      0.01         0.06
  WS02006249WS02006248        2.10      2.11      2.10      3.51         0.01
  WS02006251WS02006249        2.10      2.10      2.10      2.21         2.03
  WS02006252WS02006251        2.25      2.25      2.25      2.25         0.01
  WS02006256WS02006235        3.72      3.78      5.73      1.35         0.01
  YS02001580YS02001583        0.74      0.74      0.80      0.01         0.01
  YS02001583YS02001586        0.75      0.75      0.88      0.01         0.01
  YS02001586YS02001590        0.89      0.89      0.96      0.01         0.01
  YS02001590YS02001593        0.97      0.97      0.99      1.00         0.01
  YS02001593YS02001596        0.98      0.98      1.09      0.01         0.01
  YS02001596YS02001600        1.15      1.15      1.24      0.01         0.01
  YS02001600YS02001601        1.29      1.29      1.54      0.01         0.01
  YS02001601YS02001602        1.45      1.45      1.58      1.23         0.01
  YS02001602YS02001605        1.40      1.40      1.45      2.38         0.01
  YS02001605YS02001607        1.36      1.40      1.37      1.48         1.35
  YS02001607YS02001610        0.97      0.97      1.00      0.01         0.01
  YS02001610YS02001613        0.96      0.96      1.00      0.01         0.01
  YS02001613YS02001616        0.92      0.92      0.96      0.01         0.01
  YS02001616YS02001619        0.91      0.91      0.92      0.07         0.09
  YS02001619YS02001622        0.90      0.91      0.91      0.92         0.82
  YS02001622YS02001625        0.91      0.91      1.10      0.01         0.01
  YS02001625YS02001629        0.85      0.85      1.10      0.01         0.01
  YS02001629YS02163301        1.10      1.10      1.11      0.07         0.13
  YS02001633YS02163601        1.13      1.13      1.17      0.22         0.22
  YS02001641YS02001644        1.06      1.08      1.06      1.62         1.04
  YS02001644YS02001647        0.85      0.85      1.06      0.01         0.01
  YS02001647YS02001649        0.85      0.85      0.99      0.01         0.01
  YS02001649YS02001757        0.99      0.99      1.06      0.06         0.04
  YS02001652YS02001649        0.82      0.82      0.99      0.01         0.01
  YS02001655YS02001652        0.62      0.62      0.79      0.01         0.01
  YS02001658YS02001655        0.37      0.37      0.62      0.01         0.01
  YS02001661YS02001658        0.11      0.11      0.37      0.01         0.01
  YS02001664YS02001661        0.01      0.01      0.17      0.01         0.01
  YS02001745YS02001748        0.01      0.01      0.30      0.01         0.01
  YS02001748YS02001751        0.34      0.34      0.50      0.01         0.01
  YS02001751YS02001754        0.50      0.50      0.72      0.01         0.01
  YS02001754YS02001757        0.77      0.77      1.06      0.01         0.01
  YS02001757CaochengTiaoxuchi        1.06      1.06      2.16      0.39         0.39
  YS02001759YS02001757        0.98      0.98      1.06      0.01         0.01
  YS02001762YS02001759        0.95      0.95      0.98      0.01         0.01
  YS02001765YS02001762        0.91      0.91      0.95      0.01         0.01
  YS02001767YS02001765        0.87      0.87      0.91      0.01         0.02
  YS02001770YS02001767        0.86      0.86      0.87      0.62         0.55
  YS02001774YS02001770        0.84      0.84      0.93      0.01         0.01
  YS02001779YS02001774        0.70      0.70      0.93      0.01         0.01
  YS02001783YS02001784        0.61      0.64      0.61      0.80         0.61
  YS02001784YS02001785        0.50      0.61      0.50      1.06         0.50
  YS02001786YS02001788        0.01      0.50      0.01      0.92         0.01
  YS02001790YS02001791        0.01      0.01      0.01      0.59         0.01
  YS02001793JiankangQianchi        0.01      0.01      7.70      0.01         0.01
  YS02001882YS02001884        0.58      0.58      0.59      0.01         0.01
  YS02001884YS02001887        0.61      0.61      0.62      0.01         0.01
  YS02001887YS02001890        0.64      0.64      0.65      0.18         0.01
  YS02001890YS02001895        0.57      0.57      0.67      0.01         0.01
  YS02001895YS02001898        0.56      0.56      0.57      0.01         0.01
  YS02001898YS02001901        0.57      0.57      0.61      0.01         0.01
  YS02001901YS02001904        0.60      0.60      0.61      0.01         0.01
  YS02001904YS02001907        0.60      0.60      0.89      0.01         0.01
  YS02001907YS02006553        1.07      1.07      1.14      0.01         0.01
  YS02001910YS02001907        0.67      0.67      0.88      0.05         0.05
  YS02001915YS02001910        0.57      0.57      0.67      0.01         0.01
  YS02001918YS02001915        0.48      0.48      0.57      0.01         0.01
  YS02001920YS02001918        0.48      0.48      0.50      0.01         0.01
  YS02001923YS02001920        0.44      0.44      0.50      0.01         0.01
  YS02001926YS02001923        0.19      0.19      0.23      0.01         0.01
  YS02001929YS02001926        0.07      0.07      0.23      0.01         0.01
  YS02006553YS02006556        0.77      0.77      0.89      0.01         0.01
  YS02006556YS02006558        0.83      0.83      0.91      0.01         0.01
  YS02006558YS02006561        0.52      0.75      0.52      1.00         0.52
  YS02006561YS02001783        0.45      0.45      0.64      0.01         0.01
  YS02163301YS02001633        1.11      1.11      1.15      0.01         0.01
  YS02163601YS02164001        1.09      1.09      1.17      0.08         0.01
  YS02164001YS02001641        1.08      1.09      1.08      0.66         0.59
  
  
  ***************
  Pumping Summary
  ***************
  
  ---------------------------------------------------------------------------------------------------------
                                                  Min       Avg       Max     Total     Power    % Time Off
                        Percent   Number of      Flow      Flow      Flow    Volume     Usage    Pump Curve
  Pump                 Utilized   Start-Ups       LPS       LPS       LPS  10^6 ltr     Kw-hr    Low   High
  ---------------------------------------------------------------------------------------------------------
  CC-R1                   18.37           2      0.00    683.00    683.00     3.614     69.78    0.0    5.7
  CC-R2                   17.12           2      0.00    683.00    683.00     3.367     65.21    0.0    6.1
  CC-S1                   44.70           3      0.00    200.00    200.00     2.574     14.28    0.0    0.0
  CC-S2                   28.11           2      0.00    200.00    200.00     1.619      8.55    0.0    0.0
  JK-R1                    9.50          15      0.00   1000.00   1000.00     2.736     31.55    0.0    0.0
  JK-R2                    0.97           4      0.00   1000.00   1000.00     0.280      2.34    0.0    0.0
  JK-S                    16.73          22      0.00    300.00    300.00     1.446     19.60    0.0    0.0
  

  Analysis begun on:  Mon Feb 24 09:52:53 2025
  Analysis ended on:  Mon Feb 24 09:52:55 2025
  Total elapsed time: 00:00:02