
  EPA STORM WATER MANAGEMENT MODEL - VERSION 5.2 (Build 5.2.4)
  PYSWMM TOOLKIT API - VERSION v1.0 (2023-11-27)
  ------------------------------------------------------------

  WARNING 04: minimum elevation drop used for Conduit WS02004404WS02004405
  WARNING 03: negative offset ignored for Link YS02001904YS02001907
  
  ****************
  Analysis Options
  ****************
  Flow Units ............... LPS
  Process Models:
    Rainfall/Runoff ........ YES
    RDII ................... NO
    Snowmelt ............... NO
    Groundwater ............ NO
    Flow Routing ........... YES
    Ponding Allowed ........ NO
    Water Quality .......... NO
  Infiltration Method ...... HORTON
  Flow Routing Method ...... DYNWAVE
  Surcharge Method ......... EXTRAN
  Starting Date ............ 08/28/2015 08:00:00
  Ending Date .............. 08/28/2015 16:00:00
  Antecedent Dry Days ...... 8.0
  Report Time Step ......... 00:01:00
  Wet Time Step ............ 00:01:00
  Dry Time Step ............ 00:01:00
  Routing Time Step ........ 30.00 sec
  Variable Time Step ....... YES
  Maximum Trials ........... 8
  Number of Threads ........ 4
  Head Tolerance ........... 0.001500 m
  
  
  **************************        Volume         Depth
  Runoff Quantity Continuity     hectare-m            mm
  **************************     ---------       -------
  Total Precipitation ......         2.449        73.834
  Evaporation Loss .........         0.000         0.000
  Infiltration Loss ........         0.100         3.029
  Surface Runoff ...........         2.316        69.826
  Final Storage ............         0.033         0.995
  Continuity Error (%) .....        -0.022
  
  
  **************************        Volume        Volume
  Flow Routing Continuity        hectare-m      10^6 ltr
  **************************     ---------     ---------
  Dry Weather Inflow .......         0.025         0.251
  Wet Weather Inflow .......         2.316        23.161
  Groundwater Inflow .......         0.000         0.000
  RDII Inflow ..............         0.000         0.000
  External Inflow ..........         0.083         0.834
  External Outflow .........         1.591        15.912
  Flooding Loss ............         0.804         8.036
  Evaporation Loss .........         0.000         0.000
  Exfiltration Loss ........         0.000         0.000
  Initial Stored Volume ....         0.243         2.431
  Final Stored Volume ......         0.277         2.768
  Continuity Error (%) .....        -0.152
  
  
  *************************
  Highest Continuity Errors
  *************************
  Node YS02001583 (-6.55%)
  Node YS02001884 (4.95%)
  
  
  ***************************
  Time-Step Critical Elements
  ***************************
  Link WS02006252WS02006251 (42.63%)
  Link WS02004404WS02004405 (15.10%)
  Link WS02006238WS02006235 (9.71%)
  Link WS02006235WS02006234 (9.46%)
  Link YS02001791YS02001793 (7.88%)
  
  
  ********************************
  Highest Flow Instability Indexes
  ********************************
  Link WS02006113WS02006111 (47)
  Link WS02006111WS02006112 (27)
  Link WS02004404WS02004405 (21)
  Link WS02004403WS02004404 (19)
  Link WS02004405WS02004406 (17)
  
  
  *********************************
  Most Frequent Nonconverging Nodes
  *********************************
  Node CC-1 (14.22%)
  Node CC-2 (14.22%)
  Node JK-1 (14.22%)
  Node JK-2 (14.22%)
  Node WSC (14.22%)
  
  
  *************************
  Routing Time Step Summary
  *************************
  Minimum Time Step           :     0.01 sec
  Average Time Step           :     2.12 sec
  Maximum Time Step           :     7.04 sec
  % of Time in Steady State   :     0.00
  Average Iterations per Step :     3.20
  % of Steps Not Converging   :    14.22
  Time Step Frequencies       :
     30.000 - 13.228 sec      :     0.00 %
     13.228 -  5.833 sec      :     9.50 %
      5.833 -  2.572 sec      :    21.94 %
      2.572 -  1.134 sec      :    20.56 %
      1.134 -  0.500 sec      :    48.01 %
  
  
  ***************************
  Subcatchment Runoff Summary
  ***************************
  
  ------------------------------------------------------------------------------------------------------------------------------
                            Total      Total      Total      Total     Imperv       Perv      Total       Total     Peak  Runoff
                           Precip      Runon       Evap      Infil     Runoff     Runoff     Runoff      Runoff   Runoff   Coeff
  Subcatchment                 mm         mm         mm         mm         mm         mm         mm    10^6 ltr      LPS
  ------------------------------------------------------------------------------------------------------------------------------
  sub60                     73.83       0.00       0.00       1.83      63.77       7.03      70.80        0.93   604.13   0.959
  sub61                     73.83       0.00       0.00       2.65      60.15       9.90      70.06        1.29   837.15   0.949
  sub62                     73.83       0.00       0.00       1.22      66.64       4.69      71.33        1.95  1174.87   0.966
  sub63                     73.83       0.00       0.00       4.88      51.45      16.54      68.00        1.54   928.67   0.921
  sub64                     73.83       0.00       0.00       2.47      61.55       8.61      70.17        1.69   956.55   0.950
  sub65                     73.83       0.00       0.00       2.14      62.98       7.47      70.45        1.94  1066.82   0.954
  sub66                     73.83       0.00       0.00       6.00      51.35      15.41      66.76        3.11  1391.01   0.904
  sub67                     73.83       0.00       0.00       1.18      66.69       4.73      71.42        1.33   907.99   0.967
  sub68                     73.83       0.00       0.00       2.20      62.31       8.14      70.46        1.94  1201.60   0.954
  sub69                     73.83       0.00       0.00       1.95      62.65       9.12      71.77        2.66  1420.86   0.972
  sub70                     73.83       0.00       0.00       6.48      48.57      18.63      67.19        1.94   782.64   0.910
  sub71                     73.83       0.00       0.00       1.25      66.60       4.66      71.26        1.86  1035.08   0.965
  sub72                     73.83       0.00       0.00       1.11      67.27       4.06      71.32        0.98   500.52   0.966
  
  
  ******************
  Node Depth Summary
  ******************
  
  ---------------------------------------------------------------------------------
                                 Average  Maximum  Maximum  Time of Max    Reported
                                   Depth    Depth      HGL   Occurrence   Max Depth
  Node                 Type       Meters   Meters   Meters  days hr:min      Meters
  ---------------------------------------------------------------------------------
  WS02003060           JUNCTION     0.24     0.38     5.31     0  02:08        0.38
  WS02003066           JUNCTION     0.20     0.30     5.85     0  02:08        0.30
  WS02003067           JUNCTION     0.51     0.70     6.02     0  02:08        0.70
  WS02003069           JUNCTION     0.27     0.43     5.01     0  02:09        0.43
  WS02003072           JUNCTION     0.33     0.50     4.87     0  02:09        0.50
  WS02003073           JUNCTION     0.19     0.30     4.36     0  02:10        0.30
  WS02004401           JUNCTION     0.60     0.87     6.87     0  02:06        0.87
  WS02004402           JUNCTION     0.63     0.90     6.86     0  02:05        0.90
  WS02004403           JUNCTION     0.66     0.92     6.85     0  02:21        0.91
  WS02004404           JUNCTION     0.73     1.02     6.87     0  02:21        0.99
  WS02004405           JUNCTION     0.72     0.96     6.81     0  02:04        0.96
  WS02004406           JUNCTION     0.73     0.96     6.79     0  02:06        0.95
  WS02004407           JUNCTION     0.18     0.29     6.61     0  02:06        0.29
  WS02004409           JUNCTION     0.40     0.66     6.43     0  02:07        0.66
  WS02004410           JUNCTION     0.42     0.68     6.40     0  02:07        0.68
  WS02004411           JUNCTION     0.44     0.69     6.37     0  02:07        0.69
  WS02004412           JUNCTION     0.46     0.69     6.33     0  02:07        0.69
  WS02004413           JUNCTION     0.62     0.85     6.32     0  02:07        0.85
  WS02006109           JUNCTION     0.65     1.24     7.85     0  02:48        1.01
  WS02006110           JUNCTION     0.65     1.16     7.75     0  02:38        0.95
  WS02006111           JUNCTION     0.18     0.29     6.99     0  02:53        0.29
  WS02006112           JUNCTION     0.75     1.09     6.98     0  02:33        1.07
  WS02006113           JUNCTION     0.27     0.46     7.35     0  02:50        0.46
  WS02006115           JUNCTION     0.48     0.77     6.91     0  02:05        0.77
  WS02006116           JUNCTION     0.57     0.85     6.89     0  02:05        0.85
  WS02006228           JUNCTION     0.64     1.27     7.92     0  02:48        1.06
  WS02006229           JUNCTION     0.61     1.24     7.94     0  02:38        1.07
  WS02006230           JUNCTION     0.61     1.45     8.20     0  02:38        1.26
  WS02006231           JUNCTION     0.41     1.50     8.62     0  01:55        1.01
  WS02006232           JUNCTION     0.55     1.32     8.36     0  02:48        1.13
  WS02006234           JUNCTION     0.47     1.53     8.69     0  02:48        1.23
  WS02006235           JUNCTION     0.51     2.00     9.16     0  02:48        2.00
  WS02006238           JUNCTION     0.54     2.15     9.29     0  02:48        2.15
  WS02006239           JUNCTION     0.51     1.86     9.07     0  02:48        1.86
  WS02006240           JUNCTION     0.48     1.55     8.84     0  02:15        1.50
  WS02006242           JUNCTION     0.55     1.55     8.82     0  02:02        1.55
  WS02006243           JUNCTION     0.46     1.48     8.90     0  02:02        1.48
  WS02006245           JUNCTION     0.47     1.49     8.98     0  02:02        1.49
  WS02006247           JUNCTION     0.49     1.36     8.86     0  02:02        1.36
  WS02006248           JUNCTION     0.46     1.10     8.69     0  01:50        1.10
  WS02006249           JUNCTION     0.49     1.09     8.69     0  01:49        1.09
  WS02006251           JUNCTION     0.49     1.56     9.23     0  02:48        1.17
  WS02006252           JUNCTION     0.35     1.50     9.74     0  00:00        0.74
  WS02006256           JUNCTION     0.97     2.35     9.28     0  00:00        2.35
  WSF200               JUNCTION     0.17     0.29     5.52     0  02:08        0.29
  YS02001580           JUNCTION     0.10     1.05     9.59     0  01:43        0.77
  YS02001583           JUNCTION     0.14     1.14     9.64     0  01:43        0.82
  YS02001586           JUNCTION     0.22     1.13     9.30     0  01:43        1.13
  YS02001590           JUNCTION     0.32     1.40     9.26     0  01:41        1.40
  YS02001593           JUNCTION     0.25     1.34     9.20     0  01:41        1.29
  YS02001596           JUNCTION     0.34     1.70     9.12     0  02:02        1.70
  YS02001600           JUNCTION     0.41     1.87     9.00     0  01:43        1.87
  YS02001601           JUNCTION     0.59     2.06     8.90     0  01:41        2.06
  YS02001602           JUNCTION     0.50     1.87     8.77     0  01:43        1.87
  YS02001605           JUNCTION     0.47     1.78     8.68     0  01:43        1.78
  YS02001607           JUNCTION     0.46     1.68     8.53     0  01:43        1.66
  YS02001610           JUNCTION     0.51     1.68     8.48     0  01:43        1.68
  YS02001613           JUNCTION     0.46     1.70     8.54     0  01:43        1.66
  YS02001616           JUNCTION     0.39     1.61     8.52     0  01:43        1.61
  YS02001619           JUNCTION     0.37     1.61     8.54     0  01:43        1.61
  YS02001622           JUNCTION     0.36     1.62     8.52     0  01:43        1.58
  YS02001625           JUNCTION     0.63     1.78     8.38     0  01:43        1.78
  YS02001629           JUNCTION     0.48     1.85     8.40     0  01:43        1.85
  YS02001633           JUNCTION     0.56     2.05     8.51     0  02:02        2.01
  YS02001641           JUNCTION     0.55     2.05     8.49     0  02:02        1.95
  YS02001644           JUNCTION     0.54     1.92     8.35     0  01:46        1.92
  YS02001647           JUNCTION     0.34     1.80     8.41     0  01:47        1.75
  YS02001649           JUNCTION     0.38     2.05     8.44     0  01:47        1.98
  YS02001652           JUNCTION     0.28     1.96     8.55     0  01:47        1.85
  YS02001655           JUNCTION     0.21     1.90     8.75     0  01:47        1.68
  YS02001658           JUNCTION     0.15     1.87     9.01     0  01:47        1.47
  YS02001661           JUNCTION     0.17     1.47     8.87     0  01:47        1.29
  YS02001664           JUNCTION     0.06     0.93     8.85     0  01:47        0.86
  YS02001745           JUNCTION     0.08     1.66     9.17     0  01:47        0.87
  YS02001748           JUNCTION     0.15     2.00     9.07     0  01:47        1.28
  YS02001751           JUNCTION     0.19     2.08     8.96     0  01:47        1.46
  YS02001754           JUNCTION     0.25     2.15     8.76     0  01:47        1.69
  YS02001757           JUNCTION     0.42     2.21     8.47     0  01:47        2.00
  YS02001759           JUNCTION     0.36     2.20     8.56     0  01:47        2.01
  YS02001762           JUNCTION     0.34     2.15     8.55     0  01:47        1.98
  YS02001765           JUNCTION     0.32     2.09     8.54     0  01:47        1.94
  YS02001767           JUNCTION     0.32     2.02     8.51     0  01:47        1.92
  YS02001770           JUNCTION     0.33     1.95     8.44     0  01:47        1.95
  YS02001774           JUNCTION     0.39     2.00     8.42     0  01:48        1.99
  YS02001779           JUNCTION     0.23     1.68     8.37     0  01:46        1.68
  YS02001783           JUNCTION     0.25     1.38     7.52     0  01:45        1.23
  YS02001784           JUNCTION     0.26     1.22     7.29     0  01:45        1.11
  YS02001786           JUNCTION     0.22     0.93     6.96     0  01:45        0.87
  YS02001788           JUNCTION     0.16     0.62     6.60     0  01:48        0.62
  YS02001790           JUNCTION     0.19     0.73     6.37     0  01:48        0.72
  YS02001791           JUNCTION     0.12     0.44     5.91     0  01:50        0.43
  YS02001793           JUNCTION     0.06     0.31     5.14     0  01:50        0.30
  YS02001882           JUNCTION     0.32     1.83     8.55     0  01:44        1.65
  YS02001884           JUNCTION     0.41     1.90     8.52     0  01:44        1.76
  YS02001887           JUNCTION     0.49     1.90     8.44     0  01:44        1.84
  YS02001890           JUNCTION     0.52     1.81     8.32     0  01:44        1.81
  YS02001895           JUNCTION     0.29     1.75     8.50     0  01:44        1.56
  YS02001898           JUNCTION     0.30     1.77     8.51     0  01:44        1.58
  YS02001901           JUNCTION     0.41     1.78     8.38     0  01:44        1.67
  YS02001904           JUNCTION     0.39     1.70     8.33     0  02:02        1.70
  YS02001907           JUNCTION     0.71     1.96     8.25     0  01:44        1.96
  YS02001910           JUNCTION     0.51     2.10     8.61     0  01:44        1.93
  YS02001915           JUNCTION     0.32     2.00     8.72     0  01:44        1.86
  YS02001918           JUNCTION     0.18     1.81     8.88     0  01:46        1.57
  YS02001920           JUNCTION     0.25     2.14     9.15     0  01:46        1.65
  YS02001923           JUNCTION     0.13     2.03     9.29     0  01:46        1.40
  YS02001926           JUNCTION     0.17     1.90     9.35     0  01:46        1.22
  YS02001929           JUNCTION     0.09     1.78     9.47     0  01:46        0.97
  YS02006553           JUNCTION     0.72     2.00     8.29     0  01:45        1.98
  YS02006556           JUNCTION     0.69     2.01     8.32     0  01:45        1.97
  YS02006558           JUNCTION     0.73     2.07     8.34     0  01:45        2.02
  YS02006561           JUNCTION     0.16     1.17     7.83     0  01:45        0.90
  YS02163301           JUNCTION     0.51     1.95     8.47     0  02:02        1.91
  YS02163601           JUNCTION     0.60     2.08     8.48     0  02:02        2.02
  YS02164001           JUNCTION     0.54     2.07     8.53     0  02:02        1.94
  CC-1                 OUTFALL      0.00     0.00     0.00     0  00:00        0.00
  CC-2                 OUTFALL      0.00     0.00     0.00     0  00:00        0.00
  JK-1                 OUTFALL      0.00     0.00     0.00     0  00:00        0.00
  JK-2                 OUTFALL      0.00     0.00     0.00     0  00:00        0.00
  WSC                  OUTFALL      0.19     0.30     0.97     0  02:10        0.30
  CC-storage           STORAGE      1.02     1.79     7.29     0  02:24        1.79
  JK-storage           STORAGE      3.18     4.23     5.03     0  02:00        4.20
  
  
  *******************
  Node Inflow Summary
  *******************
  
  -------------------------------------------------------------------------------------------------
                                  Maximum  Maximum                  Lateral       Total        Flow
                                  Lateral    Total  Time of Max      Inflow      Inflow     Balance
                                   Inflow   Inflow   Occurrence      Volume      Volume       Error
  Node                 Type           LPS      LPS  days hr:min    10^6 ltr    10^6 ltr     Percent
  -------------------------------------------------------------------------------------------------
  WS02003060           JUNCTION     16.53   548.47     0  02:08       0.476        5.56       0.034
  WS02003066           JUNCTION      0.00   531.61     0  02:08           0        5.08       0.024
  WS02003067           JUNCTION      0.00   531.52     0  02:07           0        5.09       0.079
  WS02003069           JUNCTION      0.32   548.52     0  02:08     0.00922        5.57       0.062
  WS02003072           JUNCTION      0.00   548.03     0  02:09           0        5.56       0.114
  WS02003073           JUNCTION      1.82   549.84     0  02:09      0.0524        5.61       0.088
  WS02004401           JUNCTION      0.00   538.96     0  02:17           0        5.18       0.190
  WS02004402           JUNCTION      0.00   537.85     0  02:18           0        5.17       0.194
  WS02004403           JUNCTION      0.00   538.00     0  02:05           0        5.16       0.188
  WS02004404           JUNCTION      0.16   551.95     0  02:03     0.00467        5.16       0.181
  WS02004405           JUNCTION      0.04   606.45     0  02:21      0.0011        5.15       0.165
  WS02004406           JUNCTION      0.00   538.84     0  02:05           0        5.14       0.393
  WS02004407           JUNCTION      0.00   535.13     0  02:06           0        5.12       0.018
  WS02004409           JUNCTION      0.00   534.62     0  02:06           0        5.12       0.044
  WS02004410           JUNCTION      0.00   533.32     0  02:06           0        5.12       0.076
  WS02004411           JUNCTION      0.00   532.45     0  02:07           0        5.11       0.100
  WS02004412           JUNCTION      0.00   532.02     0  02:07           0        5.11       0.137
  WS02004413           JUNCTION      0.00   531.75     0  02:07           0         5.1       0.246
  WS02006109           JUNCTION      1.23   558.69     0  02:48      0.0354        5.22       0.164
  WS02006110           JUNCTION      0.00   559.63     0  02:38           0        5.22       0.120
  WS02006111           JUNCTION      0.00   561.28     0  02:18           0        5.21       0.012
  WS02006112           JUNCTION      0.00   543.11     0  02:53           0        5.21       0.324
  WS02006113           JUNCTION      0.00   573.13     0  02:49           0        5.21       0.032
  WS02006115           JUNCTION      0.00   555.40     0  03:11           0        5.19       0.119
  WS02006116           JUNCTION      0.00   539.63     0  02:18           0        5.18       0.058
  WS02006228           JUNCTION      0.00   556.38     0  02:48           0        5.19       0.064
  WS02006229           JUNCTION      0.00   556.28     0  02:48           0         5.2       0.095
  WS02006230           JUNCTION     10.28   587.94     0  02:00       0.296         5.2       0.062
  WS02006231           JUNCTION      0.00   579.27     0  02:21           0         4.9      -0.057
  WS02006232           JUNCTION      0.00   578.52     0  02:21           0        4.91       0.208
  WS02006234           JUNCTION      0.00   574.34     0  02:21           0         4.9      -0.188
  WS02006235           JUNCTION      0.00   567.39     0  02:21           0        4.96       0.158
  WS02006238           JUNCTION      0.00   425.21     0  03:12           0        4.16      -0.085
  WS02006239           JUNCTION      0.00   423.91     0  02:30           0        4.13      -0.090
  WS02006240           JUNCTION      0.00   421.91     0  03:05           0         4.1      -0.039
  WS02006242           JUNCTION      0.00   422.09     0  02:15           0        4.08      -0.054
  WS02006243           JUNCTION      0.00   423.35     0  03:05           0        4.07       0.042
  WS02006245           JUNCTION      0.00   424.84     0  03:05           0        4.08       0.235
  WS02006247           JUNCTION      0.00   423.94     0  03:05           0        4.08       0.025
  WS02006248           JUNCTION      0.00   423.60     0  03:05           0        4.08       0.056
  WS02006249           JUNCTION      0.00   459.02     0  00:00           0        4.28       0.196
  WS02006251           JUNCTION      0.08   407.01     0  01:49     0.00222        4.28      -0.020
  WS02006252           JUNCTION      0.00   400.00     0  00:00           0        4.27      -0.016
  WS02006256           JUNCTION      0.00   300.00     0  00:00           0        1.21      -0.844
  WSF200               JUNCTION      0.00   531.66     0  02:08           0        5.08       0.006
  YS02001580           JUNCTION      0.00   120.58     0  01:43           0     0.00449       0.868
  YS02001583           JUNCTION      0.00   204.19     0  01:43           0      0.0154      -6.147
  YS02001586           JUNCTION    782.64   782.64     0  01:53        1.94        1.95       0.072
  YS02001590           JUNCTION      0.00   318.67     0  02:02           0        1.46      -0.023
  YS02001593           JUNCTION      0.00   318.31     0  02:10           0        1.46       0.005
  YS02001596           JUNCTION      0.00   318.17     0  02:10           0        1.46      -0.006
  YS02001600           JUNCTION      0.00   318.18     0  02:10           0        1.46       0.002
  YS02001601           JUNCTION   1420.86  1738.48     0  01:51        2.66        4.12       0.014
  YS02001602           JUNCTION      0.00   538.30     0  01:43           0        2.42       0.017
  YS02001605           JUNCTION      0.00   538.09     0  01:43           0        2.27       0.021
  YS02001607           JUNCTION      0.00   537.82     0  01:43           0        2.27       0.083
  YS02001610           JUNCTION      0.00   774.17     0  01:53           0        2.58       0.093
  YS02001613           JUNCTION      0.00   550.50     0  01:42           0        2.02       0.086
  YS02001616           JUNCTION      0.00   559.83     0  01:42           0        2.02       0.020
  YS02001619           JUNCTION   1391.01  1391.01     0  01:53        3.11        4.82       0.001
  YS02001622           JUNCTION      0.00   963.46     0  01:51           0         4.5      -0.002
  YS02001625           JUNCTION      0.00  1372.20     0  01:54           0        4.76       0.193
  YS02001629           JUNCTION      0.00   940.08     0  01:43           0        3.58       0.014
  YS02001633           JUNCTION   1067.02  1395.89     0  01:45        1.95        5.19       0.067
  YS02001641           JUNCTION      0.00  1392.66     0  01:45           0        4.87       0.061
  YS02001644           JUNCTION    956.59  1817.21     0  01:45        1.69        6.55       0.050
  YS02001647           JUNCTION      0.00  1817.14     0  01:45           0        5.91       0.012
  YS02001649           JUNCTION      0.00  2025.39     0  01:44           0        7.46       0.010
  YS02001652           JUNCTION      0.00   956.57     0  01:48           0        1.55      -0.079
  YS02001655           JUNCTION      0.15   957.22     0  01:48     0.00443        1.55      -0.099
  YS02001658           JUNCTION      0.00   957.64     0  01:48           0        1.55      -0.172
  YS02001661           JUNCTION      0.00   953.61     0  01:50           0        1.55       0.020
  YS02001664           JUNCTION    928.67   928.67     0  01:50        1.54        1.54      -0.022
  YS02001745           JUNCTION    604.14   628.26     0  01:47        0.93       0.934       0.147
  YS02001748           JUNCTION      0.04   625.90     0  01:49      0.0013       0.935      -0.329
  YS02001751           JUNCTION      0.01   625.33     0  01:49    0.000317       0.944       0.097
  YS02001754           JUNCTION      0.26   626.76     0  01:49     0.00749        0.96      -0.178
  YS02001757           JUNCTION      0.00  3353.47     0  01:47           0        11.4       0.027
  YS02001759           JUNCTION    837.19  1370.33     0  01:49        1.29        2.95      -0.002
  YS02001762           JUNCTION      0.00   790.79     0  01:47           0        1.67       0.006
  YS02001765           JUNCTION      0.00   792.32     0  01:47           0        1.67       0.023
  YS02001767           JUNCTION      0.54   793.71     0  01:47      0.0154        1.67       0.009
  YS02001770           JUNCTION   1175.03  1175.03     0  01:51        1.96        2.01      -0.004
  YS02001774           JUNCTION      0.00   674.47     0  01:51           0       0.376       0.359
  YS02001779           JUNCTION      0.01   675.96     0  01:51    0.000144       0.327      -0.338
  YS02001783           JUNCTION      0.00  1167.90     0  01:49           0        4.42       0.006
  YS02001784           JUNCTION      1.06  1169.38     0  01:49      0.0305        4.45       0.011
  YS02001786           JUNCTION      0.06  1169.30     0  01:49     0.00162        4.45       0.016
  YS02001788           JUNCTION      0.07  1169.08     0  01:49     0.00204        4.45       0.007
  YS02001790           JUNCTION      0.15  1181.24     0  01:48     0.00446        4.45       0.026
  YS02001791           JUNCTION      0.00  1294.45     0  01:48           0        4.45      -0.032
  YS02001793           JUNCTION      0.00  1248.94     0  01:48           0        4.45       0.003
  YS02001882           JUNCTION      0.00    55.29     0  01:44           0      0.0129       4.877
  YS02001884           JUNCTION      0.00    84.79     0  01:43           0      0.0489       5.208
  YS02001887           JUNCTION    908.44   908.69     0  01:50        1.34        1.37       0.314
  YS02001890           JUNCTION      0.00   908.48     0  01:50           0        1.33       0.381
  YS02001895           JUNCTION      0.00   517.76     0  01:52           0        1.18       0.144
  YS02001898           JUNCTION      0.00   517.88     0  01:55           0        1.18       0.015
  YS02001901           JUNCTION      0.00   517.79     0  01:54           0        1.18       0.285
  YS02001904           JUNCTION      0.00   517.83     0  01:51           0        1.19       0.227
  YS02001907           JUNCTION      0.00  2096.49     0  01:51           0        4.11       0.440
  YS02001910           JUNCTION      0.00  1549.62     0  01:51           0        2.92       0.245
  YS02001915           JUNCTION   1035.10  1549.00     0  01:51        1.86        2.97       0.050
  YS02001918           JUNCTION      0.00   515.96     0  01:51           0        1.14      -0.012
  YS02001920           JUNCTION      2.87   515.76     0  01:51      0.0827        1.12       0.079
  YS02001923           JUNCTION      0.04   513.28     0  01:51     0.00109        1.02      -0.095
  YS02001926           JUNCTION      0.05   672.47     0  01:46      0.0015       0.999      -0.079
  YS02001929           JUNCTION    500.52   597.30     0  01:46       0.981       0.985      -0.013
  YS02006553           JUNCTION      0.00   793.77     0  02:11           0        2.51       0.473
  YS02006556           JUNCTION      0.00   793.67     0  02:11           0        2.52       0.316
  YS02006558           JUNCTION   1202.48  1202.48     0  01:50        1.96        4.45       0.079
  YS02006561           JUNCTION      0.00  1172.30     0  01:45           0        4.42      -0.001
  YS02163301           JUNCTION      0.00   926.60     0  01:45           0        3.56       0.046
  YS02163601           JUNCTION      0.11  1394.62     0  01:45     0.00317        4.86       0.104
  YS02164001           JUNCTION      0.00  1394.11     0  01:45           0        4.86       0.052
  CC-1                 OUTFALL       0.00   683.00     0  00:00           0        3.94       0.000
  CC-2                 OUTFALL       0.00   683.00     0  00:00           0        3.15       0.000
  JK-1                 OUTFALL       0.00  1000.00     0  00:00           0        2.99       0.000
  JK-2                 OUTFALL       0.00  1000.00     0  00:00           0       0.227       0.000
  WSC                  OUTFALL       0.00   549.51     0  02:10           0         5.6       0.000
  CC-storage           STORAGE       0.00  3354.55     0  01:47           0        13.6      -0.067
  JK-storage           STORAGE       0.00  1226.19     0  01:48           0         4.6       0.084
  
  
  **********************
  Node Surcharge Summary
  **********************
  
  Surcharging occurs when water rises above the top of the highest conduit.
  ---------------------------------------------------------------------
                                               Max. Height   Min. Depth
                                   Hours       Above Crown    Below Rim
  Node                 Type      Surcharged         Meters       Meters
  ---------------------------------------------------------------------
  WS02004404           JUNCTION        0.01          0.015        2.765
  WS02006109           JUNCTION        2.29          0.417        1.403
  WS02006110           JUNCTION        0.57          0.251        1.599
  WS02006112           JUNCTION        0.82          0.093        1.587
  WS02006228           JUNCTION        2.29          0.443        1.757
  WS02006229           JUNCTION        2.29          0.444        2.006
  WS02006230           JUNCTION        0.60          0.373        1.197
  WS02006231           JUNCTION        0.77          0.786        0.744
  WS02006232           JUNCTION        2.31          0.623        0.857
  WS02006234           JUNCTION        1.19          0.810        0.430
  WS02006235           JUNCTION        2.24          1.290        0.000
  WS02006238           JUNCTION        2.29          1.430        0.000
  WS02006239           JUNCTION        2.27          1.119        0.171
  WS02006240           JUNCTION        2.29          0.841        0.549
  WS02006242           JUNCTION        2.30          0.820        0.000
  WS02006243           JUNCTION        2.28          0.770        0.000
  WS02006245           JUNCTION        2.28          0.781        0.069
  WS02006247           JUNCTION        2.28          0.652        0.108
  WS02006248           JUNCTION        2.27          0.380        0.000
  WS02006249           JUNCTION        2.27          0.390        0.000
  WS02006251           JUNCTION        0.87          0.526        0.654
  WS02006252           JUNCTION        2.42          1.100        0.000
  WS02006256           JUNCTION        5.13          2.050        0.000
  YS02001580           JUNCTION        0.72          0.450        0.000
  YS02001583           JUNCTION        0.74          0.500        0.000
  YS02001586           JUNCTION        0.90          0.510        0.000
  YS02001590           JUNCTION        0.98          0.750        0.000
  YS02001593           JUNCTION        0.98          0.718        0.122
  YS02001596           JUNCTION        1.10          0.970        0.100
  YS02001600           JUNCTION        1.27          1.190        0.000
  YS02001601           JUNCTION        1.59          1.440        0.000
  YS02001602           JUNCTION        1.50          1.270        0.000
  YS02001605           JUNCTION        1.46          1.180        0.000
  YS02001607           JUNCTION        0.98          0.680        0.000
  YS02001610           JUNCTION        1.01          0.680        0.000
  YS02001613           JUNCTION        0.98          0.699        0.001
  YS02001616           JUNCTION        0.94          0.610        0.000
  YS02001619           JUNCTION        0.92          0.610        0.000
  YS02001622           JUNCTION        0.92          0.620        0.000
  YS02001625           JUNCTION        1.11          0.780        0.000
  YS02001629           JUNCTION        0.87          0.470        0.000
  YS02001633           JUNCTION        1.15          1.035        0.025
  YS02001641           JUNCTION        1.11          1.050        0.050
  YS02001644           JUNCTION        1.09          0.920        0.000
  YS02001647           JUNCTION        0.87          0.801        0.099
  YS02001649           JUNCTION        1.02          1.050        0.000
  YS02001652           JUNCTION        0.80          0.927        0.203
  YS02001655           JUNCTION        0.58          0.901        0.299
  YS02001658           JUNCTION        0.30          0.870        0.430
  YS02001661           JUNCTION        0.08          0.397        0.993
  YS02001745           JUNCTION        0.01          0.657        0.693
  YS02001748           JUNCTION        0.23          0.917        0.273
  YS02001751           JUNCTION        0.43          1.079        0.121
  YS02001754           JUNCTION        0.70          1.104        0.046
  YS02001757           JUNCTION        1.10          1.210        0.000
  YS02001759           JUNCTION        1.00          1.199        0.011
  YS02001762           JUNCTION        0.97          1.150        0.000
  YS02001765           JUNCTION        0.91          1.095        0.005
  YS02001767           JUNCTION        0.87          1.023        0.007
  YS02001770           JUNCTION        0.84          0.920        0.000
  YS02001774           JUNCTION        0.94          0.998        0.052
  YS02001779           JUNCTION        0.68          0.680        0.000
  YS02001783           JUNCTION        0.62          0.583        1.017
  YS02001784           JUNCTION        0.60          0.420        1.070
  YS02001786           JUNCTION        0.49          0.133        1.297
  YS02001882           JUNCTION        0.56          0.830        0.000
  YS02001884           JUNCTION        0.58          0.842        0.028
  YS02001887           JUNCTION        0.61          0.851        0.099
  YS02001890           JUNCTION        0.63          0.760        0.000
  YS02001895           JUNCTION        0.55          0.750        0.000
  YS02001898           JUNCTION        0.55          0.740        0.000
  YS02001901           JUNCTION        0.60          0.776        0.094
  YS02001904           JUNCTION        0.59          0.696        0.154
  YS02001907           JUNCTION        0.85          0.950        0.000
  YS02001910           JUNCTION        0.65          1.100        0.000
  YS02001915           JUNCTION        0.56          1.000        0.000
  YS02001918           JUNCTION        0.47          0.810        0.000
  YS02001920           JUNCTION        0.49          1.140        0.000
  YS02001923           JUNCTION        0.15          0.820        0.000
  YS02001926           JUNCTION        0.17          0.900        0.000
  YS02001929           JUNCTION        0.01          0.780        0.000
  YS02006553           JUNCTION        0.86          1.001        0.189
  YS02006556           JUNCTION        0.75          0.970        0.380
  YS02006558           JUNCTION        0.74          0.971        0.429
  YS02006561           JUNCTION        0.44          0.365        0.785
  YS02163301           JUNCTION        1.13          0.952        0.078
  YS02163601           JUNCTION        1.19          1.080        0.000
  YS02164001           JUNCTION        1.11          1.071        0.029
  
  
  *********************
  Node Flooding Summary
  *********************
  
  Flooding refers to all water that overflows a node, whether it ponds or not.
  --------------------------------------------------------------------------
                                                             Total   Maximum
                                 Maximum   Time of Max       Flood    Ponded
                        Hours       Rate    Occurrence      Volume     Depth
  Node                 Flooded       LPS   days hr:min    10^6 ltr    Meters
  --------------------------------------------------------------------------
  WS02006235              0.01      3.80      0  02:48       0.000     0.000
  WS02006238              0.01      2.56      0  02:48       0.000     0.000
  WS02006242              0.01      4.16      0  02:15       0.000     0.000
  WS02006243              0.01      0.37      0  02:02       0.000     0.000
  WS02006248              0.01     17.36      0  02:00       0.001     0.000
  WS02006249              0.82     97.12      0  01:49       0.191     0.000
  WS02006252              0.01    245.63      0  00:00       0.000     0.000
  WS02006256              1.12    293.19      0  00:00       0.382     0.000
  YS02001580              0.01    106.51      0  01:43       0.000     0.000
  YS02001583              0.01    166.24      0  01:43       0.000     0.000
  YS02001586              0.59    465.13      0  01:53       0.479     0.000
  YS02001590              0.01     48.54      0  01:41       0.000     0.000
  YS02001600              0.01      0.86      0  01:43       0.000     0.000
  YS02001601              0.82   1340.67      0  01:51       1.697     0.000
  YS02001602              0.73     62.03      0  02:10       0.146     0.000
  YS02001605              0.01      2.19      0  01:43       0.000     0.000
  YS02001607              0.01      8.07      0  01:43       0.000     0.000
  YS02001610              0.63    774.07      0  01:53       0.876     0.000
  YS02001616              0.01     18.13      0  01:43       0.000     0.000
  YS02001619              0.01     56.30      0  01:43       0.000     0.000
  YS02001622              0.01    176.20      0  01:43       0.000     0.000
  YS02001625              0.61   1372.16      0  01:54       1.499     0.000
  YS02001629              0.14    295.79      0  01:49       0.077     0.000
  YS02001644              0.26   1221.31      0  01:51       0.627     0.000
  YS02001649              0.01     87.62      0  01:47       0.001     0.000
  YS02001757              0.01      9.57      0  01:47       0.000     0.000
  YS02001762              0.01     17.89      0  01:47       0.000     0.000
  YS02001770              0.01     50.44      0  01:47       0.000     0.000
  YS02001779              0.23    675.42      0  01:51       0.307     0.000
  YS02001882              0.01      6.08      0  01:44       0.000     0.000
  YS02001890              0.19    394.91      0  01:50       0.148     0.000
  YS02001895              0.01     29.75      0  01:44       0.000     0.000
  YS02001898              0.01     32.88      0  01:44       0.000     0.000
  YS02001907              0.41   2096.31      0  01:51       1.596     0.000
  YS02001910              0.01     19.59      0  01:44       0.000     0.000
  YS02001915              0.01    179.32      0  01:44       0.000     0.000
  YS02001918              0.01    273.02      0  01:46       0.004     0.000
  YS02001920              0.01     42.31      0  01:46       0.000     0.000
  YS02001923              0.01    313.54      0  01:46       0.001     0.000
  YS02001926              0.01    119.39      0  01:46       0.001     0.000
  YS02001929              0.01    212.15      0  01:46       0.001     0.000
  YS02163601              0.01     19.86      0  02:02       0.000     0.000
  
  
  **********************
  Storage Volume Summary
  **********************
  
  ------------------------------------------------------------------------------------------------
                         Average    Avg   Evap  Exfil     Maximum    Max    Time of Max    Maximum
                          Volume   Pcnt   Pcnt   Pcnt      Volume   Pcnt     Occurrence    Outflow
  Storage Unit           1000 m³   Full   Loss   Loss     1000 m³   Full    days hr:min        LPS
  ------------------------------------------------------------------------------------------------
  CC-storage               2.840   44.3    0.0    0.0       4.991   77.9       0  02:24    1783.53
  JK-storage               0.160   54.9    0.0    0.0       0.212   72.9       0  02:00    2300.00
  
  
  ***********************
  Outfall Loading Summary
  ***********************
  
  -----------------------------------------------------------
                         Flow       Avg       Max       Total
                         Freq      Flow      Flow      Volume
  Outfall Node           Pcnt       LPS       LPS    10^6 ltr
  -----------------------------------------------------------
  CC-1                  22.93    683.00    683.00       3.944
  CC-2                  18.66    683.00    683.00       3.148
  JK-1                  13.93   1000.00   1000.00       2.990
  JK-2                   0.96   1000.00   1000.00       0.227
  WSC                   99.96    264.54    549.51       5.604
  -----------------------------------------------------------
  System                31.29   3630.54   3901.71      15.912
  
  
  ********************
  Link Flow Summary
  ********************
  
  -----------------------------------------------------------------------------
                                 Maximum  Time of Max   Maximum    Max/    Max/
                                  |Flow|   Occurrence   |Veloc|    Full    Full
  Link                 Type          LPS  days hr:min     m/sec    Flow   Depth
  -----------------------------------------------------------------------------
  1                    CONDUIT    549.51     0  02:10      2.82    0.19    0.30
  WS02003060WS02003069 CONDUIT    548.20     0  02:08      1.64    0.21    0.34
  WS02003066WSF200     CONDUIT    531.66     0  02:08      2.85    0.09    0.22
  WS02003067WS02003066 CONDUIT    531.61     0  02:08      1.20    0.17    0.41
  WS02003069WS02003072 CONDUIT    548.03     0  02:09      1.37    0.26    0.39
  WS02003072WS02003073 CONDUIT    548.01     0  02:09      1.43    1.18    0.37
  WS02004401WS02004402 CONDUIT    537.85     0  02:18      0.98    0.65    0.88
  WS02004402WS02004403 CONDUIT    538.00     0  02:05      0.97    0.77    0.91
  WS02004403WS02004404 CONDUIT    551.79     0  02:03      0.92    0.40    0.96
  WS02004404WS02004405 CONDUIT    606.41     0  02:21      1.08    5.94    0.97
  WS02004405WS02004406 CONDUIT    538.84     0  02:05      0.99    1.06    0.96
  WS02004406WS02004407 CONDUIT    535.13     0  02:06      1.04    0.24    0.63
  WS02004407WS02004409 CONDUIT    534.62     0  02:06      1.56    0.19    0.48
  WS02004409WS02004410 CONDUIT    533.32     0  02:06      1.03    0.69    0.67
  WS02004410WS02004411 CONDUIT    532.45     0  02:07      0.98    0.73    0.68
  WS02004411WS02004412 CONDUIT    532.02     0  02:07      0.92    0.76    0.69
  WS02004412WS02004413 CONDUIT    531.75     0  02:07      0.81    0.36    0.77
  WS02004413WS02003067 CONDUIT    531.52     0  02:07      1.10    0.23    0.59
  WS02006109WS02006110 CONDUIT    559.63     0  02:38      1.11    1.08    1.00
  WS02006110WS02006113 CONDUIT    573.13     0  02:49      1.39    0.52    0.79
  WS02006111WS02006112 CONDUIT    543.11     0  02:53      1.81    0.26    0.67
  WS02006112WS02006115 CONDUIT    555.40     0  03:11      0.86    0.33    0.88
  WS02006113WS02006111 CONDUIT    561.28     0  02:18      2.47    0.67    0.46
  WS02006115WS02006116 CONDUIT    539.63     0  02:18      1.05    0.69    0.78
  WS02006116WS02004401 CONDUIT    538.96     0  02:17      0.98    0.74    0.86
  WS02006228WS02006109 CONDUIT    557.46     0  02:48      1.11    2.44    1.00
  WS02006229WS02006228 CONDUIT    556.38     0  02:48      1.14    1.84    1.00
  WS02006230WS02006229 CONDUIT    556.28     0  02:48      1.45   12.38    1.00
  WS02006231WS02006230 CONDUIT    577.66     0  02:00      1.59    8.76    1.00
  WS02006232WS02006231 CONDUIT    579.27     0  02:21      1.51    1.21    1.00
  WS02006234WS02006232 CONDUIT    578.52     0  02:21      1.50    1.17    1.00
  WS02006235WS02006234 CONDUIT    574.34     0  02:21      1.49    6.06    1.00
  WS02006238WS02006235 CONDUIT    426.39     0  03:12      1.56    0.95    1.00
  WS02006239WS02006238 CONDUIT    425.21     0  03:12      1.10    1.36    1.00
  WS02006240WS02006239 CONDUIT    423.91     0  02:30      1.24    1.33    1.00
  WS02006242WS02006240 CONDUIT    421.91     0  03:05      1.13    1.68    1.00
  WS02006243WS02006242 CONDUIT    422.09     0  02:15      1.40    0.90    1.00
  WS02006245WS02006243 CONDUIT    423.35     0  03:05      1.45    1.25    1.00
  WS02006247WS02006245 CONDUIT    424.84     0  03:05      1.43    3.37    1.00
  WS02006248WS02006247 CONDUIT    423.94     0  03:05      1.44    0.92    1.00
  WS02006249WS02006248 CONDUIT    423.60     0  03:05      1.36    2.32    1.00
  WS02006251WS02006249 CONDUIT    459.02     0  00:00      1.99    1.32    1.00
  WS02006252WS02006251 CONDUIT    406.93     0  01:49     24.61    1.49    1.00
  WS02006256WS02006235 CONDUIT    289.21     0  01:40      4.23    3.06    1.00
  WSF200WS02003060     CONDUIT    531.94     0  02:08      2.06    0.12    0.28
  YS02001580YS02001583 CONDUIT    120.58     0  01:43      0.75    0.47    1.00
  YS02001583YS02001586 CONDUIT    176.31     0  01:43      0.74    0.27    1.00
  YS02001586YS02001590 CONDUIT    318.67     0  02:02      1.26    0.56    1.00
  YS02001590YS02001593 CONDUIT    318.31     0  02:10      1.13    2.00    1.00
  YS02001593YS02001596 CONDUIT    318.17     0  02:10      1.73    0.50    1.00
  YS02001596YS02001600 CONDUIT    318.18     0  02:10      1.23    0.62    1.00
  YS02001600YS02001601 CONDUIT    318.38     0  02:02      1.13    0.55    1.00
  YS02001601YS02001602 CONDUIT    538.30     0  01:43      1.90    1.94    1.00
  YS02001602YS02001605 CONDUIT    538.09     0  01:43      1.90   11.39    1.00
  YS02001605YS02001607 CONDUIT    537.82     0  01:43      1.90    2.95    1.00
  YS02001607YS02001610 CONDUIT    544.74     0  01:42      0.69    0.52    1.00
  YS02001610YS02001613 CONDUIT    550.50     0  01:42      0.70    0.63    1.00
  YS02001613YS02001616 CONDUIT    559.83     0  01:42      0.72    0.48    1.00
  YS02001616YS02001619 CONDUIT    525.59     0  01:43      0.68    0.91    1.00
  YS02001619YS02001622 CONDUIT    963.46     0  01:51      1.23    1.42    1.00
  YS02001622YS02001625 CONDUIT    964.50     0  01:51      1.23    0.51    1.00
  YS02001625YS02001629 CONDUIT    940.08     0  01:43      1.20    0.45    1.00
  YS02001629YS02163301 CONDUIT    926.60     0  01:45      1.18    1.14    1.00
  YS02001633YS02163601 CONDUIT   1394.51     0  01:45      1.78    1.46    1.00
  YS02001641YS02001644 CONDUIT   1392.92     0  01:45      1.77    4.50    1.00
  YS02001644YS02001647 CONDUIT   1817.14     0  01:45      2.35    1.07    1.00
  YS02001647YS02001649 CONDUIT   1820.47     0  01:45      2.35    0.96    1.00
  YS02001649YS02001757 CONDUIT   2014.75     0  01:45      2.57    1.22    1.00
  YS02001652YS02001649 CONDUIT    960.65     0  01:48      1.22    0.48    1.00
  YS02001655YS02001652 CONDUIT    956.57     0  01:48      1.41    0.46    1.00
  YS02001658YS02001655 CONDUIT    957.07     0  01:48      1.95    0.41    1.00
  YS02001661YS02001658 CONDUIT    957.64     0  01:48      2.34    0.38    1.00
  YS02001664YS02001661 CONDUIT    953.61     0  01:50      2.38    0.30    0.96
  YS02001745YS02001748 CONDUIT    625.85     0  01:49      2.24    0.24    1.00
  YS02001748YS02001751 CONDUIT    625.32     0  01:49      1.76    0.32    1.00
  YS02001751YS02001754 CONDUIT    626.50     0  01:49      1.51    0.30    1.00
  YS02001754YS02001757 CONDUIT    626.50     0  01:49      0.80    0.25    1.00
  YS02001757CaochengTiaoxuchi CONDUIT   3354.55     0  01:47      4.27    1.45    1.00
  YS02001759YS02001757 CONDUIT   1370.67     0  01:49      1.75    0.97    1.00
  YS02001762YS02001759 CONDUIT    789.16     0  01:47      1.00    0.91    1.00
  YS02001765YS02001762 CONDUIT    790.79     0  01:47      1.01    0.74    1.00
  YS02001767YS02001765 CONDUIT    792.32     0  01:47      1.01    1.00    1.00
  YS02001770YS02001767 CONDUIT    793.17     0  01:47      1.01    3.14    1.00
  YS02001774YS02001770 CONDUIT    674.47     0  01:51      0.86    0.43    1.00
  YS02001779YS02001774 CONDUIT    675.95     0  01:51      0.86    0.34    1.00
  YS02001783YS02001784 CONDUIT   1168.32     0  01:49      2.32    1.61    1.00
  YS02001784YS02001785 CONDUIT   1169.24     0  01:49      2.33    2.72    1.00
  YS02001786YS02001788 CONDUIT   1169.01     0  01:49      2.49    2.25    0.89
  YS02001788YS02001790 CONDUIT   1181.08     0  01:48      2.72    0.87    0.84
  YS02001790YS02001791 CONDUIT   1294.45     0  01:48      3.44    1.41    0.70
  YS02001791YS02001793 CONDUIT   1248.94     0  01:48      6.69    0.54    0.45
  YS02001793JiankangQianchi CONDUIT   1226.19     0  01:48      2.42    0.10    0.65
  YS02001882YS02001884 CONDUIT     55.29     0  01:44      0.15    0.06    1.00
  YS02001884YS02001887 CONDUIT     84.79     0  01:43      0.11    0.11    1.00
  YS02001887YS02001890 CONDUIT    908.48     0  01:50      1.16    1.55    1.00
  YS02001890YS02001895 CONDUIT    517.76     0  01:52      0.66    0.24    1.00
  YS02001895YS02001898 CONDUIT    517.88     0  01:55      0.66    0.90    1.00
  YS02001898YS02001901 CONDUIT    517.79     0  01:54      0.66    0.33    1.00
  YS02001901YS02001904 CONDUIT    517.83     0  01:51      0.66    0.80    1.00
  YS02001904YS02001907 CONDUIT    517.85     0  01:52      0.66    0.18    1.00
  YS02001907YS02006553 CONDUIT    793.77     0  02:11      0.88    0.93    1.00
  YS02001910YS02001907 CONDUIT   1549.14     0  01:51      1.97    0.87    1.00
  YS02001915YS02001910 CONDUIT   1549.62     0  01:51      1.97    0.77    1.00
  YS02001918YS02001915 CONDUIT    515.84     0  01:51      0.66    0.28    1.00
  YS02001920YS02001918 CONDUIT    515.96     0  01:51      0.66    0.50    1.00
  YS02001923YS02001920 CONDUIT    512.89     0  01:51      0.71    0.23    1.00
  YS02001926YS02001923 CONDUIT    513.24     0  01:51      0.97    0.73    1.00
  YS02001929YS02001926 CONDUIT    513.00     0  01:51      1.16    0.24    1.00
  YS02006553YS02006556 CONDUIT    793.67     0  02:11      1.01    0.68    1.00
  YS02006556YS02006558 CONDUIT    795.37     0  02:11      1.01    0.63    1.00
  YS02006558YS02006561 CONDUIT   1172.30     0  01:45      4.15    2.59    1.00
  YS02006561YS02001783 CONDUIT   1167.90     0  01:49      2.32    0.60    1.00
  YS02163301YS02001633 CONDUIT    926.58     0  01:44      1.18    0.87    1.00
  YS02163601YS02164001 CONDUIT   1394.11     0  01:45      1.78    1.24    1.00
  YS02164001YS02001641 CONDUIT   1392.66     0  01:45      1.77    1.90    1.00
  CC-R1                PUMP       683.00     0  00:00              1.00
  CC-R2                PUMP       683.00     0  00:00              1.00
  CC-S1                PUMP       200.00     0  00:00              1.00
  CC-S2                PUMP       200.00     0  00:00              1.00
  JK-R1                PUMP      1000.00     0  00:00              1.00
  JK-R2                PUMP      1000.00     0  00:00              1.00
  JK-S                 PUMP       300.00     0  00:00              1.00
  
  
  ***************************
  Flow Classification Summary
  ***************************
  
  -------------------------------------------------------------------------------------
                      Adjusted    ---------- Fraction of Time in Flow Class ---------- 
                       /Actual         Up    Down  Sub   Sup   Up    Down  Norm  Inlet 
  Conduit               Length    Dry  Dry   Dry   Crit  Crit  Crit  Crit  Ltd   Ctrl  
  -------------------------------------------------------------------------------------
  1                       1.00   0.00  0.00  0.00  0.00  1.00  0.00  0.00  0.50  0.00
  WS02003060WS02003069    1.00   0.00  0.00  0.00  0.99  0.01  0.00  0.00  0.67  0.00
  WS02003066WSF200        1.00   0.13  0.00  0.00  0.00  0.87  0.00  0.00  0.78  0.00
  WS02003067WS02003066    1.00   0.10  0.02  0.00  0.88  0.00  0.00  0.00  0.00  0.00
  WS02003069WS02003072    1.00   0.00  0.00  0.00  0.99  0.01  0.00  0.00  0.70  0.00
  WS02003072WS02003073    1.00   0.00  0.00  0.00  0.00  0.00  0.00  1.00  0.00  0.00
  WS02004401WS02004402    1.00   0.02  0.00  0.00  0.98  0.00  0.00  0.00  0.00  0.00
  WS02004402WS02004403    1.00   0.02  0.00  0.00  0.97  0.00  0.00  0.00  0.00  0.00
  WS02004403WS02004404    1.00   0.00  0.03  0.00  0.97  0.00  0.00  0.00  0.00  0.00
  WS02004404WS02004405    1.00   0.00  0.00  0.00  1.00  0.00  0.00  0.00  0.01  0.00
  WS02004405WS02004406    1.00   0.00  0.00  0.00  1.00  0.00  0.00  0.00  0.00  0.00
  WS02004406WS02004407    1.00   0.00  0.05  0.00  0.95  0.00  0.00  0.00  0.00  0.00
  WS02004407WS02004409    1.00   0.05  0.00  0.00  0.94  0.01  0.00  0.00  0.94  0.00
  WS02004409WS02004410    1.00   0.05  0.00  0.00  0.95  0.00  0.00  0.00  0.03  0.00
  WS02004410WS02004411    1.00   0.05  0.00  0.00  0.95  0.00  0.00  0.00  0.01  0.00
  WS02004411WS02004412    1.00   0.05  0.00  0.00  0.95  0.00  0.00  0.00  0.00  0.00
  WS02004412WS02004413    1.00   0.05  0.00  0.00  0.94  0.00  0.00  0.00  0.01  0.00
  WS02004413WS02003067    1.00   0.06  0.04  0.00  0.00  0.00  0.90  0.00  0.00  0.00
  WS02006109WS02006110    1.00   0.00  0.01  0.00  0.98  0.00  0.01  0.00  0.00  0.00
  WS02006110WS02006113    1.00   0.01  0.01  0.00  0.98  0.00  0.00  0.00  0.00  0.00
  WS02006111WS02006112    1.00   0.02  0.00  0.00  0.98  0.00  0.00  0.00  0.98  0.00
  WS02006112WS02006115    1.00   0.02  0.00  0.00  0.97  0.00  0.00  0.00  0.00  0.00
  WS02006113WS02006111    1.00   0.02  0.00  0.00  0.00  0.98  0.00  0.00  0.14  0.00
  WS02006115WS02006116    1.00   0.02  0.00  0.00  0.97  0.00  0.00  0.01  0.00  0.00
  WS02006116WS02004401    1.00   0.02  0.00  0.00  0.98  0.00  0.00  0.00  0.00  0.00
  WS02006228WS02006109    1.00   0.00  0.00  0.00  1.00  0.00  0.00  0.00  0.00  0.00
  WS02006229WS02006228    1.00   0.00  0.00  0.00  0.99  0.00  0.00  0.01  0.00  0.00
  WS02006230WS02006229    1.00   0.00  0.00  0.00  0.99  0.00  0.00  0.01  0.00  0.00
  WS02006231WS02006230    1.00   0.00  0.00  0.00  0.30  0.00  0.70  0.00  0.00  0.00
  WS02006232WS02006231    1.00   0.00  0.00  0.00  0.99  0.00  0.01  0.00  0.00  0.00
  WS02006234WS02006232    1.00   0.00  0.00  0.00  1.00  0.00  0.00  0.00  0.22  0.00
  WS02006235WS02006234    1.00   0.00  0.00  0.00  0.73  0.00  0.27  0.00  0.00  0.00
  WS02006238WS02006235    1.00   0.00  0.00  0.00  1.00  0.00  0.00  0.00  0.00  0.00
  WS02006239WS02006238    1.00   0.00  0.00  0.00  1.00  0.00  0.00  0.00  0.36  0.00
  WS02006240WS02006239    1.00   0.00  0.00  0.00  0.59  0.00  0.00  0.41  0.02  0.00
  WS02006242WS02006240    1.00   0.00  0.00  0.00  0.99  0.00  0.01  0.00  0.00  0.00
  WS02006243WS02006242    1.00   0.00  0.00  0.00  0.99  0.00  0.00  0.01  0.52  0.00
  WS02006245WS02006243    1.00   0.00  0.00  0.00  0.65  0.00  0.00  0.35  0.01  0.00
  WS02006247WS02006245    1.00   0.00  0.00  0.00  0.99  0.00  0.00  0.01  0.00  0.00
  WS02006248WS02006247    1.00   0.00  0.00  0.00  0.99  0.00  0.00  0.01  0.21  0.00
  WS02006249WS02006248    1.00   0.00  0.00  0.00  0.47  0.00  0.53  0.00  0.00  0.00
  WS02006251WS02006249    1.00   0.00  0.00  0.00  1.00  0.00  0.00  0.00  0.54  0.00
  WS02006252WS02006251    1.00   0.00  0.56  0.00  0.11  0.00  0.33  0.00  0.00  0.00
  WS02006256WS02006235    1.00   0.00  0.00  0.00  1.00  0.00  0.00  0.00  0.00  0.00
  WSF200WS02003060        1.00   0.00  0.13  0.00  0.30  0.57  0.00  0.00  0.48  0.00
  YS02001580YS02001583    1.00   0.21  0.57  0.00  0.21  0.00  0.00  0.00  0.67  0.00
  YS02001583YS02001586    1.00   0.42  0.31  0.00  0.27  0.00  0.00  0.00  0.67  0.00
  YS02001586YS02001590    1.00   0.13  0.00  0.00  0.43  0.04  0.00  0.40  0.34  0.00
  YS02001590YS02001593    1.00   0.13  0.01  0.00  0.14  0.00  0.73  0.00  0.00  0.00
  YS02001593YS02001596    1.00   0.13  0.00  0.00  0.16  0.01  0.00  0.70  0.02  0.00
  YS02001596YS02001600    1.00   0.13  0.00  0.00  0.21  0.01  0.00  0.64  0.04  0.00
  YS02001600YS02001601    1.00   0.13  0.01  0.00  0.86  0.00  0.00  0.00  0.60  0.00
  YS02001601YS02001602    1.00   0.13  0.01  0.00  0.87  0.00  0.00  0.00  0.00  0.00
  YS02001602YS02001605    1.00   0.13  0.00  0.00  0.87  0.00  0.00  0.00  0.00  0.00
  YS02001605YS02001607    1.00   0.14  0.00  0.00  0.86  0.00  0.00  0.00  0.00  0.00
  YS02001607YS02001610    1.00   0.13  0.01  0.00  0.86  0.00  0.00  0.00  0.01  0.00
  YS02001610YS02001613    1.00   0.13  0.00  0.00  0.87  0.00  0.00  0.00  0.00  0.00
  YS02001613YS02001616    1.00   0.13  0.00  0.00  0.87  0.00  0.00  0.00  0.00  0.00
  YS02001616YS02001619    1.00   0.13  0.00  0.00  0.87  0.00  0.00  0.00  0.00  0.00
  YS02001619YS02001622    1.00   0.13  0.00  0.00  0.87  0.00  0.00  0.00  0.28  0.00
  YS02001622YS02001625    1.00   0.13  0.00  0.00  0.87  0.00  0.00  0.00  0.03  0.00
  YS02001625YS02001629    1.00   0.13  0.04  0.00  0.18  0.00  0.64  0.00  0.00  0.00
  YS02001629YS02163301    1.00   0.15  0.01  0.00  0.84  0.00  0.00  0.00  0.00  0.00
  YS02001633YS02163601    1.00   0.00  0.01  0.00  0.99  0.00  0.00  0.00  0.15  0.00
  YS02001641YS02001644    1.00   0.00  0.01  0.00  0.99  0.00  0.00  0.00  0.00  0.00
  YS02001644YS02001647    1.00   0.00  0.16  0.00  0.83  0.00  0.00  0.00  0.00  0.00
  YS02001647YS02001649    1.00   0.00  0.16  0.00  0.64  0.20  0.00  0.00  0.56  0.00
  YS02001649YS02001757    1.00   0.00  0.00  0.00  0.89  0.10  0.00  0.00  0.41  0.00
  YS02001652YS02001649    1.00   0.00  0.00  0.00  0.97  0.03  0.00  0.00  0.71  0.00
  YS02001655YS02001652    1.00   0.00  0.00  0.00  0.21  0.01  0.00  0.77  0.05  0.00
  YS02001658YS02001655    1.00   0.00  0.14  0.00  0.69  0.17  0.00  0.00  0.65  0.00
  YS02001661YS02001658    1.00   0.14  0.00  0.00  0.53  0.33  0.00  0.00  0.68  0.00
  YS02001664YS02001661    1.00   0.13  0.00  0.00  0.78  0.10  0.00  0.00  0.84  0.00
  YS02001745YS02001748    1.00   0.00  0.00  0.00  0.13  0.01  0.00  0.86  0.05  0.00
  YS02001748YS02001751    1.00   0.00  0.00  0.00  0.85  0.15  0.00  0.00  0.76  0.00
  YS02001751YS02001754    1.00   0.00  0.00  0.00  0.20  0.00  0.00  0.79  0.04  0.00
  YS02001754YS02001757    1.00   0.00  0.00  0.00  1.00  0.00  0.00  0.00  0.76  0.00
  YS02001757CaochengTiaoxuchi    1.00   0.00  0.00  0.00  1.00  0.00  0.00  0.00  0.53  0.00
  YS02001759YS02001757    1.00   0.00  0.00  0.00  0.99  0.01  0.00  0.00  0.50  0.00
  YS02001762YS02001759    1.00   0.00  0.00  0.00  1.00  0.00  0.00  0.00  0.04  0.00
  YS02001765YS02001762    1.00   0.00  0.00  0.00  1.00  0.00  0.00  0.00  0.63  0.00
  YS02001767YS02001765    1.00   0.00  0.00  0.00  1.00  0.00  0.00  0.00  0.01  0.00
  YS02001770YS02001767    1.00   0.00  0.00  0.00  1.00  0.00  0.00  0.00  0.00  0.00
  YS02001774YS02001770    1.00   0.00  0.13  0.00  0.70  0.00  0.17  0.00  0.03  0.00
  YS02001779YS02001774    1.00   0.00  0.00  0.00  1.00  0.00  0.00  0.00  0.75  0.00
  YS02001783YS02001784    1.00   0.00  0.17  0.00  0.83  0.00  0.00  0.00  0.55  0.00
  YS02001784YS02001785    1.00   0.00  0.00  0.00  1.00  0.00  0.00  0.00  0.16  0.00
  YS02001786YS02001788    1.00   0.00  0.00  0.00  0.79  0.21  0.00  0.00  0.00  0.00
  YS02001788YS02001790    1.00   0.00  0.00  0.00  0.21  0.79  0.00  0.00  0.79  0.00
  YS02001790YS02001791    1.00   0.00  0.00  0.00  0.01  0.99  0.00  0.00  0.16  0.00
  YS02001791YS02001793    1.00   0.00  0.00  0.00  0.00  1.00  0.00  0.00  0.01  0.00
  YS02001793JiankangQianchi    1.00   0.00  0.00  0.00  0.98  0.01  0.00  0.00  0.94  0.00
  YS02001882YS02001884    1.00   0.15  0.01  0.00  0.84  0.00  0.00  0.00  0.00  0.00
  YS02001884YS02001887    1.00   0.06  0.05  0.00  0.89  0.00  0.00  0.00  0.00  0.00
  YS02001887YS02001890    1.00   0.00  0.00  0.00  0.97  0.00  0.03  0.00  0.00  0.00
  YS02001890YS02001895    1.00   0.00  0.16  0.00  0.84  0.00  0.00  0.00  0.00  0.00
  YS02001895YS02001898    1.00   0.16  0.00  0.00  0.82  0.00  0.02  0.00  0.00  0.00
  YS02001898YS02001901    1.00   0.16  0.00  0.00  0.84  0.00  0.00  0.00  0.01  0.00
  YS02001901YS02001904    1.00   0.16  0.00  0.00  0.84  0.00  0.00  0.00  0.00  0.00
  YS02001904YS02001907    1.00   0.00  0.16  0.00  0.84  0.00  0.00  0.00  0.00  0.00
  YS02001907YS02006553    1.00   0.00  0.02  0.00  0.98  0.00  0.00  0.00  0.00  0.00
  YS02001910YS02001907    1.00   0.00  0.00  0.00  0.97  0.00  0.00  0.03  0.12  0.00
  YS02001915YS02001910    1.00   0.00  0.00  0.00  0.97  0.03  0.00  0.00  0.14  0.00
  YS02001918YS02001915    1.00   0.00  0.01  0.00  0.98  0.02  0.00  0.00  0.73  0.00
  YS02001920YS02001918    1.00   0.00  0.01  0.00  0.99  0.00  0.00  0.00  0.00  0.00
  YS02001923YS02001920    1.00   0.00  0.00  0.00  1.00  0.00  0.00  0.00  0.91  0.00
  YS02001926YS02001923    1.00   0.00  0.07  0.00  0.07  0.00  0.86  0.00  0.00  0.00
  YS02001929YS02001926    1.00   0.00  0.13  0.00  0.87  0.00  0.00  0.00  0.81  0.00
  YS02006553YS02006556    1.00   0.01  0.00  0.00  0.99  0.00  0.00  0.00  0.03  0.00
  YS02006556YS02006558    1.00   0.00  0.00  0.00  1.00  0.00  0.00  0.00  0.00  0.00
  YS02006558YS02006561    1.00   0.17  0.00  0.00  0.07  0.76  0.00  0.00  0.18  0.00
  YS02006561YS02001783    1.00   0.17  0.00  0.00  0.10  0.73  0.00  0.00  0.68  0.00
  YS02163301YS02001633    1.00   0.00  0.15  0.00  0.85  0.00  0.00  0.00  0.00  0.00
  YS02163601YS02164001    1.00   0.00  0.08  0.00  0.92  0.00  0.00  0.00  0.00  0.00
  YS02164001YS02001641    1.00   0.01  0.07  0.00  0.92  0.00  0.00  0.00  0.05  0.00
  
  
  *************************
  Conduit Surcharge Summary
  *************************
  
  ----------------------------------------------------------------------------
                                                           Hours        Hours 
                         --------- Hours Full --------   Above Full   Capacity
  Conduit                Both Ends  Upstream  Dnstream   Normal Flow   Limited
  ----------------------------------------------------------------------------
  WS02003072WS02003073        0.01      0.01      0.01      1.16         0.01
  WS02004403WS02004404        0.01      0.01      0.01      0.01         0.01
  WS02004404WS02004405        0.01      0.01      0.01      3.47         0.01
  WS02004405WS02004406        0.01      0.01      0.01      0.54         0.01
  WS02006109WS02006110        0.57      0.57      2.31      0.73         0.01
  WS02006110WS02006113        0.01      0.01      2.31      0.01         0.01
  WS02006111WS02006112        0.01      0.01      2.54      0.01         0.01
  WS02006112WS02006115        0.01      0.01      0.82      0.01         0.01
  WS02006228WS02006109        2.29      2.31      2.29      2.69         2.29
  WS02006229WS02006228        2.29      2.29      2.29      2.43         2.28
  WS02006230WS02006229        2.34      2.40      2.34      4.12         2.34
  WS02006231WS02006230        0.60      0.60      0.84      3.81         0.01
  WS02006232WS02006231        0.77      0.77      2.31      0.86         0.01
  WS02006234WS02006232        2.22      2.23      2.31      0.84         0.83
  WS02006235WS02006234        1.18      1.19      2.23      3.66         0.03
  WS02006238WS02006235        2.25      2.25      2.31      0.01         0.01
  WS02006239WS02006238        2.29      2.31      2.29      2.32         2.09
  WS02006240WS02006239        2.27      2.29      2.27      2.32         1.99
  WS02006242WS02006240        2.29      2.29      2.31      2.44         0.01
  WS02006243WS02006242        2.28      2.28      2.30      0.01         0.06
  WS02006245WS02006243        2.28      2.28      2.28      1.70         1.67
  WS02006247WS02006245        2.28      2.28      2.28      3.48         2.26
  WS02006248WS02006247        2.27      2.27      2.28      0.01         0.07
  WS02006249WS02006248        2.27      2.27      2.27      3.45         0.01
  WS02006251WS02006249        2.27      2.27      2.27      2.37         2.17
  WS02006252WS02006251        2.42      2.42      2.42      2.42         0.01
  WS02006256WS02006235        3.65      3.70      5.09      1.12         0.01
  YS02001580YS02001583        0.72      0.72      0.79      0.01         0.01
  YS02001583YS02001586        0.74      0.74      0.90      0.01         0.01
  YS02001586YS02001590        0.90      0.90      0.98      0.01         0.01
  YS02001590YS02001593        0.98      0.98      1.00      1.04         0.01
  YS02001593YS02001596        0.99      0.99      1.10      0.01         0.01
  YS02001596YS02001600        1.15      1.15      1.27      0.01         0.01
  YS02001600YS02001601        1.33      1.33      1.59      0.01         0.01
  YS02001601YS02001602        1.50      1.50      1.62      1.25         0.01
  YS02001602YS02001605        1.46      1.46      1.50      2.32         0.01
  YS02001605YS02001607        1.43      1.46      1.43      1.56         1.43
  YS02001607YS02001610        0.98      0.98      1.01      0.01         0.01
  YS02001610YS02001613        0.98      0.98      1.01      0.01         0.01
  YS02001613YS02001616        0.94      0.94      0.98      0.01         0.01
  YS02001616YS02001619        0.92      0.92      0.94      0.01         0.03
  YS02001619YS02001622        0.92      0.92      0.92      0.93         0.83
  YS02001622YS02001625        0.92      0.92      1.11      0.01         0.01
  YS02001625YS02001629        0.87      0.87      1.11      0.01         0.01
  YS02001629YS02163301        1.12      1.12      1.13      0.04         0.13
  YS02001633YS02163601        1.15      1.15      1.19      0.27         0.27
  YS02001641YS02001644        1.09      1.11      1.09      1.64         1.07
  YS02001644YS02001647        0.87      0.87      1.09      0.03         0.01
  YS02001647YS02001649        0.87      0.87      1.02      0.01         0.01
  YS02001649YS02001757        1.02      1.02      1.10      0.05         0.04
  YS02001652YS02001649        0.82      0.82      1.02      0.01         0.01
  YS02001655YS02001652        0.58      0.58      0.80      0.01         0.01
  YS02001658YS02001655        0.30      0.30      0.58      0.01         0.01
  YS02001661YS02001658        0.08      0.08      0.30      0.01         0.01
  YS02001664YS02001661        0.01      0.01      0.13      0.01         0.01
  YS02001745YS02001748        0.01      0.01      0.23      0.01         0.01
  YS02001748YS02001751        0.27      0.27      0.43      0.01         0.01
  YS02001751YS02001754        0.43      0.43      0.70      0.01         0.01
  YS02001754YS02001757        0.76      0.76      1.10      0.01         0.01
  YS02001757CaochengTiaoxuchi        1.10      1.10      2.26      0.40         0.38
  YS02001759YS02001757        1.00      1.00      1.10      0.01         0.02
  YS02001762YS02001759        0.97      0.97      1.00      0.01         0.02
  YS02001765YS02001762        0.91      0.91      0.97      0.01         0.01
  YS02001767YS02001765        0.87      0.87      0.91      0.01         0.02
  YS02001770YS02001767        0.86      0.86      0.87      0.62         0.57
  YS02001774YS02001770        0.84      0.84      0.94      0.01         0.01
  YS02001779YS02001774        0.68      0.68      0.94      0.01         0.01
  YS02001783YS02001784        0.60      0.62      0.60      0.78         0.60
  YS02001784YS02001785        0.49      0.60      0.49      1.04         0.49
  YS02001786YS02001788        0.01      0.49      0.01      0.89         0.01
  YS02001790YS02001791        0.01      0.01      0.01      0.58         0.01
  YS02001793JiankangQianchi        0.01      0.01      7.70      0.01         0.01
  YS02001882YS02001884        0.56      0.56      0.58      0.01         0.01
  YS02001884YS02001887        0.60      0.60      0.61      0.01         0.01
  YS02001887YS02001890        0.63      0.63      0.64      0.15         0.01
  YS02001890YS02001895        0.55      0.55      0.66      0.01         0.01
  YS02001895YS02001898        0.55      0.55      0.55      0.01         0.01
  YS02001898YS02001901        0.56      0.56      0.60      0.01         0.01
  YS02001901YS02001904        0.59      0.59      0.60      0.01         0.01
  YS02001904YS02001907        0.59      0.59      0.86      0.01         0.01
  YS02001907YS02006553        1.06      1.06      1.14      0.01         0.01
  YS02001910YS02001907        0.66      0.66      0.85      0.01         0.01
  YS02001915YS02001910        0.56      0.56      0.66      0.01         0.01
  YS02001918YS02001915        0.48      0.48      0.56      0.01         0.01
  YS02001920YS02001918        0.48      0.48      0.49      0.01         0.01
  YS02001923YS02001920        0.43      0.43      0.49      0.01         0.01
  YS02001926YS02001923        0.15      0.15      0.17      0.01         0.01
  YS02001929YS02001926        0.01      0.01      0.17      0.01         0.01
  YS02006553YS02006556        0.75      0.75      0.86      0.01         0.01
  YS02006556YS02006558        0.81      0.81      0.89      0.01         0.01
  YS02006558YS02006561        0.52      0.74      0.52      0.99         0.52
  YS02006561YS02001783        0.44      0.44      0.62      0.01         0.01
  YS02163301YS02001633        1.13      1.13      1.17      0.01         0.01
  YS02163601YS02164001        1.11      1.11      1.19      0.05         0.01
  YS02164001YS02001641        1.10      1.11      1.11      0.75         0.70
  
  
  ***************
  Pumping Summary
  ***************
  
  ---------------------------------------------------------------------------------------------------------
                                                  Min       Avg       Max     Total     Power    % Time Off
                        Percent   Number of      Flow      Flow      Flow    Volume     Usage    Pump Curve
  Pump                 Utilized   Start-Ups       LPS       LPS       LPS  10^6 ltr     Kw-hr    Low   High
  ---------------------------------------------------------------------------------------------------------
  CC-R1                   20.05           2      0.00    683.00    683.00     3.943     75.50    0.0    5.2
  CC-R2                   16.00           2      0.00    683.00    683.00     3.148     60.78    0.0    6.5
  CC-S1                   44.00           3      0.00    200.00    200.00     2.534     14.11    0.0    0.0
  CC-S2                   30.20           2      0.00    200.00    200.00     1.740      9.32    0.0    0.0
  JK-R1                   10.38          15      0.00   1000.00   1000.00     2.988     34.42    0.0    0.0
  JK-R2                    0.78           3      0.00   1000.00   1000.00     0.226      1.86    0.0    0.0
  JK-S                    13.99          19      0.00    300.00    300.00     1.209     16.17    0.0    0.0
  

  Analysis begun on:  Mon Feb 24 09:53:08 2025
  Analysis ended on:  Mon Feb 24 09:53:09 2025
  Total elapsed time: 00:00:01