
  EPA STORM WATER MANAGEMENT MODEL - VERSION 5.2 (Build 5.2.4)
  PYSWMM TOOLKIT API - VERSION v1.0 (2023-11-27)
  ------------------------------------------------------------

  WARNING 04: minimum elevation drop used for Conduit WS02004404WS02004405
  WARNING 03: negative offset ignored for Link YS02001904YS02001907
  
  ****************
  Analysis Options
  ****************
  Flow Units ............... LPS
  Process Models:
    Rainfall/Runoff ........ YES
    RDII ................... NO
    Snowmelt ............... NO
    Groundwater ............ NO
    Flow Routing ........... YES
    Ponding Allowed ........ NO
    Water Quality .......... NO
  Infiltration Method ...... HORTON
  Flow Routing Method ...... DYNWAVE
  Surcharge Method ......... EXTRAN
  Starting Date ............ 08/28/2015 08:00:00
  Ending Date .............. 08/28/2015 16:00:00
  Antecedent Dry Days ...... 8.0
  Report Time Step ......... 00:01:00
  Wet Time Step ............ 00:01:00
  Dry Time Step ............ 00:01:00
  Routing Time Step ........ 30.00 sec
  Variable Time Step ....... YES
  Maximum Trials ........... 8
  Number of Threads ........ 4
  Head Tolerance ........... 0.001500 m
  
  
  **************************        Volume         Depth
  Runoff Quantity Continuity     hectare-m            mm
  **************************     ---------       -------
  Total Precipitation ......         1.946        58.653
  Evaporation Loss .........         0.000         0.000
  Infiltration Loss ........         0.097         2.926
  Surface Runoff ...........         1.816        54.749
  Final Storage ............         0.033         0.994
  Continuity Error (%) .....        -0.026
  
  
  **************************        Volume        Volume
  Flow Routing Continuity        hectare-m      10^6 ltr
  **************************     ---------     ---------
  Dry Weather Inflow .......         0.025         0.251
  Wet Weather Inflow .......         1.816        18.160
  Groundwater Inflow .......         0.000         0.000
  RDII Inflow ..............         0.000         0.000
  External Inflow ..........         0.083         0.834
  External Outflow .........         1.334        13.339
  Flooding Loss ............         0.557         5.568
  Evaporation Loss .........         0.000         0.000
  Exfiltration Loss ........         0.000         0.000
  Initial Stored Volume ....         0.243         2.431
  Final Stored Volume ......         0.280         2.795
  Continuity Error (%) .....        -0.122
  
  
  *************************
  Highest Continuity Errors
  *************************
  Node YS02001583 (-5.96%)
  Node YS02001884 (4.85%)
  
  
  ***************************
  Time-Step Critical Elements
  ***************************
  Link WS02006252WS02006251 (49.07%)
  Link WS02004404WS02004405 (17.18%)
  Link WS02006238WS02006235 (9.29%)
  Link YS02001791YS02001793 (6.43%)
  Link WS02006235WS02006234 (6.06%)
  
  
  ********************************
  Highest Flow Instability Indexes
  ********************************
  Link WS02006113WS02006111 (44)
  Link WS02006111WS02006112 (24)
  Link WS02004404WS02004405 (18)
  Link WS02004403WS02004404 (17)
  Link WS02004405WS02004406 (15)
  
  
  *********************************
  Most Frequent Nonconverging Nodes
  *********************************
  Node CC-1 (10.61%)
  Node CC-2 (10.61%)
  Node JK-1 (10.61%)
  Node JK-2 (10.61%)
  Node WSC (10.61%)
  
  
  *************************
  Routing Time Step Summary
  *************************
  Minimum Time Step           :     0.01 sec
  Average Time Step           :     2.06 sec
  Maximum Time Step           :     7.04 sec
  % of Time in Steady State   :     0.00
  Average Iterations per Step :     2.95
  % of Steps Not Converging   :    10.61
  Time Step Frequencies       :
     30.000 - 13.228 sec      :     0.00 %
     13.228 -  5.833 sec      :    12.27 %
      5.833 -  2.572 sec      :    17.62 %
      2.572 -  1.134 sec      :    16.10 %
      1.134 -  0.500 sec      :    54.02 %
  
  
  ***************************
  Subcatchment Runoff Summary
  ***************************
  
  ------------------------------------------------------------------------------------------------------------------------------
                            Total      Total      Total      Total     Imperv       Perv      Total       Total     Peak  Runoff
                           Precip      Runon       Evap      Infil     Runoff     Runoff     Runoff      Runoff   Runoff   Coeff
  Subcatchment                 mm         mm         mm         mm         mm         mm         mm    10^6 ltr      LPS
  ------------------------------------------------------------------------------------------------------------------------------
  sub60                     58.65       0.00       0.00       1.76      50.41       5.28      55.69        0.73   550.69   0.950
  sub61                     58.65       0.00       0.00       2.55      47.55       7.42      54.98        1.01   762.72   0.937
  sub62                     58.65       0.00       0.00       1.17      52.68       3.52      56.20        1.54  1067.83   0.958
  sub63                     58.65       0.00       0.00       4.71      40.68      12.31      52.98        1.20   847.29   0.903
  sub64                     58.65       0.00       0.00       2.38      48.65       6.42      55.07        1.32   856.99   0.939
  sub65                     58.65       0.00       0.00       2.06      49.78       5.57      55.35        1.52   956.93   0.944
  sub66                     58.65       0.00       0.00       5.83      40.57      11.18      51.75        2.41  1224.10   0.882
  sub67                     58.65       0.00       0.00       1.13      52.72       3.56      56.28        1.05   834.74   0.960
  sub68                     58.65       0.00       0.00       2.11      49.26       6.10      55.36        1.52  1097.83   0.944
  sub69                     58.65       0.00       0.00       1.87      49.75       6.93      56.68        2.10  1274.90   0.966
  sub70                     58.65       0.00       0.00       6.26      38.55      13.68      52.23        1.51   686.34   0.890
  sub71                     58.65       0.00       0.00       1.20      52.64       3.49      56.13        1.47   928.34   0.957
  sub72                     58.65       0.00       0.00       1.07      53.15       3.04      56.18        0.77   445.62   0.958
  
  
  ******************
  Node Depth Summary
  ******************
  
  ---------------------------------------------------------------------------------
                                 Average  Maximum  Maximum  Time of Max    Reported
                                   Depth    Depth      HGL   Occurrence   Max Depth
  Node                 Type       Meters   Meters   Meters  days hr:min      Meters
  ---------------------------------------------------------------------------------
  WS02003060           JUNCTION     0.23     0.38     5.32     0  02:26        0.38
  WS02003066           JUNCTION     0.19     0.30     5.85     0  02:20        0.30
  WS02003067           JUNCTION     0.49     0.70     6.02     0  02:20        0.70
  WS02003069           JUNCTION     0.25     0.43     5.01     0  02:22        0.43
  WS02003072           JUNCTION     0.32     0.50     4.87     0  02:22        0.50
  WS02003073           JUNCTION     0.18     0.30     4.36     0  02:23        0.30
  WS02004401           JUNCTION     0.58     0.88     6.88     0  02:19        0.88
  WS02004402           JUNCTION     0.61     0.90     6.86     0  02:19        0.90
  WS02004403           JUNCTION     0.64     0.92     6.85     0  02:19        0.92
  WS02004404           JUNCTION     0.71     1.03     6.88     0  02:21        1.00
  WS02004405           JUNCTION     0.70     0.97     6.82     0  02:18        0.96
  WS02004406           JUNCTION     0.71     0.96     6.79     0  02:18        0.96
  WS02004407           JUNCTION     0.17     0.30     6.61     0  02:19        0.30
  WS02004409           JUNCTION     0.37     0.67     6.44     0  02:21        0.67
  WS02004410           JUNCTION     0.40     0.68     6.40     0  02:22        0.68
  WS02004411           JUNCTION     0.42     0.69     6.37     0  02:19        0.69
  WS02004412           JUNCTION     0.45     0.70     6.34     0  02:21        0.70
  WS02004413           JUNCTION     0.61     0.86     6.33     0  02:20        0.86
  WS02006109           JUNCTION     0.62     1.22     7.84     0  02:39        1.19
  WS02006110           JUNCTION     0.63     1.26     7.84     0  02:39        1.10
  WS02006111           JUNCTION     0.17     0.29     7.00     0  03:44        0.29
  WS02006112           JUNCTION     0.73     1.09     6.97     0  03:06        1.07
  WS02006113           JUNCTION     0.25     0.46     7.35     0  02:42        0.46
  WS02006115           JUNCTION     0.46     0.77     6.91     0  02:20        0.77
  WS02006116           JUNCTION     0.55     0.85     6.89     0  02:20        0.85
  WS02006228           JUNCTION     0.61     1.42     8.08     0  02:39        1.18
  WS02006229           JUNCTION     0.58     1.48     8.17     0  02:39        1.14
  WS02006230           JUNCTION     0.57     1.83     8.57     0  02:39        1.26
  WS02006231           JUNCTION     0.39     1.47     8.59     0  02:39        1.01
  WS02006232           JUNCTION     0.52     1.46     8.50     0  02:39        1.23
  WS02006234           JUNCTION     0.44     1.93     9.09     0  02:40        1.28
  WS02006235           JUNCTION     0.48     1.72     8.88     0  02:10        1.38
  WS02006238           JUNCTION     0.50     1.78     8.92     0  02:10        1.42
  WS02006239           JUNCTION     0.47     1.70     8.91     0  02:10        1.40
  WS02006240           JUNCTION     0.44     1.59     8.89     0  02:10        1.34
  WS02006242           JUNCTION     0.50     1.55     8.82     0  02:05        1.38
  WS02006243           JUNCTION     0.42     1.40     8.82     0  02:10        1.24
  WS02006245           JUNCTION     0.42     1.31     8.79     0  02:20        1.18
  WS02006247           JUNCTION     0.45     1.28     8.78     0  02:35        1.17
  WS02006248           JUNCTION     0.41     1.10     8.69     0  02:05        1.09
  WS02006249           JUNCTION     0.45     1.09     8.69     0  02:00        1.09
  WS02006251           JUNCTION     0.45     1.43     9.10     0  02:38        1.14
  WS02006252           JUNCTION     0.33     1.50     9.74     0  00:00        0.70
  WS02006256           JUNCTION     0.95     2.35     9.28     0  00:00        2.35
  WSF200               JUNCTION     0.16     0.29     5.52     0  02:25        0.29
  YS02001580           JUNCTION     0.08     1.05     9.59     0  01:55        1.00
  YS02001583           JUNCTION     0.11     1.14     9.64     0  01:55        0.93
  YS02001586           JUNCTION     0.18     1.13     9.30     0  01:55        1.13
  YS02001590           JUNCTION     0.27     1.40     9.26     0  01:53        1.40
  YS02001593           JUNCTION     0.21     1.39     9.26     0  01:57        1.39
  YS02001596           JUNCTION     0.29     1.70     9.12     0  01:57        1.70
  YS02001600           JUNCTION     0.34     1.87     9.00     0  01:55        1.87
  YS02001601           JUNCTION     0.53     2.06     8.90     0  01:53        2.06
  YS02001602           JUNCTION     0.45     1.87     8.77     0  01:55        1.87
  YS02001605           JUNCTION     0.42     1.78     8.68     0  01:55        1.77
  YS02001607           JUNCTION     0.41     1.65     8.50     0  02:22        1.65
  YS02001610           JUNCTION     0.46     1.68     8.48     0  01:55        1.68
  YS02001613           JUNCTION     0.42     1.70     8.54     0  01:55        1.70
  YS02001616           JUNCTION     0.35     1.61     8.52     0  01:55        1.60
  YS02001619           JUNCTION     0.32     1.61     8.54     0  01:55        1.61
  YS02001622           JUNCTION     0.31     1.62     8.52     0  01:55        1.57
  YS02001625           JUNCTION     0.58     1.78     8.38     0  01:55        1.78
  YS02001629           JUNCTION     0.43     1.85     8.40     0  01:55        1.85
  YS02001633           JUNCTION     0.51     2.03     8.48     0  01:58        2.00
  YS02001641           JUNCTION     0.50     1.96     8.40     0  01:58        1.94
  YS02001644           JUNCTION     0.49     1.92     8.35     0  01:58        1.92
  YS02001647           JUNCTION     0.28     1.82     8.43     0  01:59        1.76
  YS02001649           JUNCTION     0.32     2.05     8.44     0  01:59        2.00
  YS02001652           JUNCTION     0.22     1.98     8.57     0  01:59        1.90
  YS02001655           JUNCTION     0.17     2.01     8.86     0  01:59        1.74
  YS02001658           JUNCTION     0.12     2.05     9.19     0  01:59        1.55
  YS02001661           JUNCTION     0.15     1.58     8.99     0  01:59        1.39
  YS02001664           JUNCTION     0.05     0.95     8.88     0  02:00        0.94
  YS02001745           JUNCTION     0.06     2.01     9.53     0  01:59        0.87
  YS02001748           JUNCTION     0.11     2.27     9.35     0  01:59        1.27
  YS02001751           JUNCTION     0.14     2.20     9.08     0  01:59        1.45
  YS02001754           JUNCTION     0.19     2.20     8.81     0  01:59        1.69
  YS02001757           JUNCTION     0.34     2.21     8.47     0  01:59        2.00
  YS02001759           JUNCTION     0.28     2.19     8.55     0  01:59        2.00
  YS02001762           JUNCTION     0.27     2.15     8.55     0  01:59        1.97
  YS02001765           JUNCTION     0.25     2.10     8.55     0  01:59        1.94
  YS02001767           JUNCTION     0.25     2.03     8.52     0  01:59        1.94
  YS02001770           JUNCTION     0.26     1.95     8.44     0  01:59        1.95
  YS02001774           JUNCTION     0.33     2.02     8.45     0  01:59        2.02
  YS02001779           JUNCTION     0.17     1.68     8.37     0  01:58        1.68
  YS02001783           JUNCTION     0.22     1.37     7.51     0  01:58        1.23
  YS02001784           JUNCTION     0.24     1.23     7.30     0  01:58        1.12
  YS02001786           JUNCTION     0.20     0.92     6.95     0  01:58        0.87
  YS02001788           JUNCTION     0.14     0.63     6.61     0  01:58        0.62
  YS02001790           JUNCTION     0.17     0.73     6.37     0  02:02        0.72
  YS02001791           JUNCTION     0.11     0.44     5.91     0  02:03        0.43
  YS02001793           JUNCTION     0.06     0.30     5.13     0  02:05        0.28
  YS02001882           JUNCTION     0.28     1.83     8.55     0  01:57        1.83
  YS02001884           JUNCTION     0.38     1.93     8.55     0  01:57        1.93
  YS02001887           JUNCTION     0.45     2.00     8.54     0  01:57        2.00
  YS02001890           JUNCTION     0.48     1.81     8.32     0  01:57        1.81
  YS02001895           JUNCTION     0.25     1.75     8.50     0  01:57        1.75
  YS02001898           JUNCTION     0.26     1.77     8.51     0  01:57        1.77
  YS02001901           JUNCTION     0.38     1.87     8.48     0  01:57        1.87
  YS02001904           JUNCTION     0.36     1.85     8.48     0  01:57        1.85
  YS02001907           JUNCTION     0.68     1.96     8.25     0  01:57        1.96
  YS02001910           JUNCTION     0.48     2.10     8.61     0  01:57        2.10
  YS02001915           JUNCTION     0.29     1.95     8.66     0  01:58        1.89
  YS02001918           JUNCTION     0.15     1.81     8.88     0  01:58        1.46
  YS02001920           JUNCTION     0.23     2.14     9.15     0  01:58        1.54
  YS02001923           JUNCTION     0.11     2.03     9.29     0  01:58        1.39
  YS02001926           JUNCTION     0.15     1.90     9.35     0  01:58        1.23
  YS02001929           JUNCTION     0.08     1.78     9.47     0  01:58        1.05
  YS02006553           JUNCTION     0.68     2.19     8.47     0  01:57        2.19
  YS02006556           JUNCTION     0.66     2.39     8.70     0  01:57        2.39
  YS02006558           JUNCTION     0.70     2.50     8.77     0  01:57        2.50
  YS02006561           JUNCTION     0.14     1.11     7.77     0  01:58        0.90
  YS02163301           JUNCTION     0.45     1.92     8.44     0  01:59        1.90
  YS02163601           JUNCTION     0.55     2.05     8.45     0  01:58        2.01
  YS02164001           JUNCTION     0.48     1.97     8.42     0  01:58        1.93
  CC-1                 OUTFALL      0.00     0.00     0.00     0  00:00        0.00
  CC-2                 OUTFALL      0.00     0.00     0.00     0  00:00        0.00
  JK-1                 OUTFALL      0.00     0.00     0.00     0  00:00        0.00
  JK-2                 OUTFALL      0.00     0.00     0.00     0  00:00        0.00
  WSC                  OUTFALL      0.18     0.30     0.97     0  02:24        0.30
  CC-storage           STORAGE      0.96     1.69     7.19     0  02:27        1.69
  JK-storage           STORAGE      3.17     4.23     5.03     0  02:20        4.20
  
  
  *******************
  Node Inflow Summary
  *******************
  
  -------------------------------------------------------------------------------------------------
                                  Maximum  Maximum                  Lateral       Total        Flow
                                  Lateral    Total  Time of Max      Inflow      Inflow     Balance
                                   Inflow   Inflow   Occurrence      Volume      Volume       Error
  Node                 Type           LPS      LPS  days hr:min    10^6 ltr    10^6 ltr     Percent
  -------------------------------------------------------------------------------------------------
  WS02003060           JUNCTION     16.53   553.16     0  02:21       0.476        4.87       0.039
  WS02003066           JUNCTION      0.00   536.24     0  02:20           0         4.4       0.028
  WS02003067           JUNCTION      0.00   536.10     0  02:20           0         4.4       0.091
  WS02003069           JUNCTION      0.32   553.31     0  02:21     0.00922        4.88       0.071
  WS02003072           JUNCTION      0.00   552.97     0  02:22           0        4.88       0.130
  WS02003073           JUNCTION      1.82   554.72     0  02:23      0.0524        4.92       0.100
  WS02004401           JUNCTION      0.00   539.80     0  02:23           0         4.5       0.219
  WS02004402           JUNCTION      0.00   540.33     0  02:28           0        4.49       0.224
  WS02004403           JUNCTION      0.00   539.83     0  02:22           0        4.48       0.218
  WS02004404           JUNCTION      0.16   556.39     0  02:19     0.00467        4.47       0.211
  WS02004405           JUNCTION      0.04   603.93     0  02:19      0.0011        4.46       0.194
  WS02004406           JUNCTION      0.00   545.29     0  02:18           0        4.46       0.455
  WS02004407           JUNCTION      0.00   539.29     0  02:18           0        4.44       0.021
  WS02004409           JUNCTION      0.00   538.46     0  02:19           0        4.43       0.050
  WS02004410           JUNCTION      0.00   537.70     0  02:19           0        4.43       0.088
  WS02004411           JUNCTION      0.00   537.07     0  02:19           0        4.43       0.116
  WS02004412           JUNCTION      0.00   536.72     0  02:20           0        4.42       0.158
  WS02004413           JUNCTION      0.00   536.47     0  02:20           0        4.42       0.284
  WS02006109           JUNCTION      1.23   563.66     0  02:39      0.0354        4.54       0.177
  WS02006110           JUNCTION      0.00   562.57     0  02:39           0        4.53       0.136
  WS02006111           JUNCTION      0.00   565.12     0  03:44           0        4.53       0.018
  WS02006112           JUNCTION      0.00   544.98     0  03:44           0        4.53       0.372
  WS02006113           JUNCTION      0.00   567.88     0  02:27           0        4.53       0.033
  WS02006115           JUNCTION      0.00   549.87     0  02:51           0        4.51       0.137
  WS02006116           JUNCTION      0.00   540.09     0  02:45           0         4.5       0.122
  WS02006228           JUNCTION      0.00   562.68     0  02:39           0        4.51       0.085
  WS02006229           JUNCTION      0.00   561.93     0  02:39           0        4.52       0.100
  WS02006230           JUNCTION     10.28   596.37     0  02:40       0.296        4.52       0.117
  WS02006231           JUNCTION      0.00   578.79     0  02:26           0        4.23       0.009
  WS02006232           JUNCTION      0.00   578.14     0  02:26           0        4.24       0.366
  WS02006234           JUNCTION      0.00   574.17     0  02:26           0        4.24      -0.118
  WS02006235           JUNCTION      0.00   566.79     0  02:26           0         4.3       0.250
  WS02006238           JUNCTION      0.00   423.70     0  02:25           0        3.53      -0.049
  WS02006239           JUNCTION      0.00   423.13     0  02:25           0         3.5       0.026
  WS02006240           JUNCTION      0.00   419.88     0  02:25           0        3.47       0.047
  WS02006242           JUNCTION      0.00   419.49     0  02:25           0        3.45       0.078
  WS02006243           JUNCTION      0.00   419.45     0  02:25           0        3.45       0.077
  WS02006245           JUNCTION      0.00   419.60     0  02:25           0        3.47       0.410
  WS02006247           JUNCTION      0.00   419.70     0  02:25           0        3.47       0.071
  WS02006248           JUNCTION      0.00   421.36     0  02:25           0        3.47       0.100
  WS02006249           JUNCTION      0.00   459.02     0  00:00           0        3.67       0.377
  WS02006251           JUNCTION      0.08   406.56     0  02:00     0.00222        3.67      -0.047
  WS02006252           JUNCTION      0.00   400.00     0  00:00           0        3.67      -0.032
  WS02006256           JUNCTION      0.00   300.00     0  00:00           0        1.16      -0.863
  WSF200               JUNCTION      0.00   536.33     0  02:21           0         4.4       0.008
  YS02001580           JUNCTION      0.00   120.02     0  01:55           0     0.00442       1.299
  YS02001583           JUNCTION      0.00   203.34     0  01:55           0      0.0154      -5.621
  YS02001586           JUNCTION    686.34   686.50     0  02:04        1.51        1.52       0.090
  YS02001590           JUNCTION      0.00   318.28     0  02:22           0        1.21      -0.040
  YS02001593           JUNCTION      0.00   318.14     0  02:09           0        1.22       0.005
  YS02001596           JUNCTION      0.00   318.00     0  02:14           0        1.22      -0.007
  YS02001600           JUNCTION      0.00   318.18     0  02:22           0        1.22       0.005
  YS02001601           JUNCTION   1274.90  1592.38     0  02:03         2.1        3.31       0.021
  YS02001602           JUNCTION      0.00   535.46     0  01:55           0        2.09       0.021
  YS02001605           JUNCTION      0.00   535.39     0  01:55           0        1.98       0.029
  YS02001607           JUNCTION      0.00   535.29     0  01:55           0        1.98       0.093
  YS02001610           JUNCTION      0.00   656.55     0  02:04           0        2.14       0.100
  YS02001613           JUNCTION      0.00   548.75     0  01:55           0        1.73       0.091
  YS02001616           JUNCTION      0.00   548.65     0  01:55           0        1.73       0.022
  YS02001619           JUNCTION   1224.10  1224.10     0  02:04        2.41        3.98      -0.006
  YS02001622           JUNCTION      0.00   942.19     0  02:01           0        3.81      -0.003
  YS02001625           JUNCTION      0.00  1274.02     0  02:04           0        3.97       0.221
  YS02001629           JUNCTION      0.00   942.73     0  01:55           0        3.14       0.013
  YS02001633           JUNCTION    957.13  1396.23     0  01:57        1.53        4.46       0.079
  YS02001641           JUNCTION      0.00  1393.61     0  01:57           0        4.27       0.066
  YS02001644           JUNCTION    857.03  1815.36     0  01:57        1.32        5.58       0.059
  YS02001647           JUNCTION      0.00  1816.63     0  01:57           0        5.21       0.011
  YS02001649           JUNCTION      0.00  2008.54     0  01:57           0        6.41       0.005
  YS02001652           JUNCTION      0.00   947.23     0  02:00           0        1.21      -0.101
  YS02001655           JUNCTION      0.15   946.32     0  02:00     0.00443        1.21       0.074
  YS02001658           JUNCTION      0.00   945.81     0  02:00           0         1.2      -0.060
  YS02001661           JUNCTION      0.00   946.95     0  02:00           0         1.2      -0.000
  YS02001664           JUNCTION    847.29   847.29     0  02:02         1.2         1.2      -0.029
  YS02001745           JUNCTION    550.70   651.29     0  01:59       0.732       0.734       0.151
  YS02001748           JUNCTION      0.04   604.93     0  01:59      0.0013       0.737      -0.403
  YS02001751           JUNCTION      0.01   606.12     0  01:59    0.000317       0.747       0.065
  YS02001754           JUNCTION      0.26   606.63     0  01:59     0.00749       0.763      -0.256
  YS02001757           JUNCTION      0.00  3315.10     0  02:00           0        9.56       0.020
  YS02001759           JUNCTION    762.76  1361.29     0  01:59        1.01        2.39      -0.018
  YS02001762           JUNCTION      0.00   785.16     0  01:59           0        1.38      -0.012
  YS02001765           JUNCTION      0.00   786.74     0  01:59           0        1.38       0.012
  YS02001767           JUNCTION      0.54   787.35     0  01:59      0.0154        1.38      -0.002
  YS02001770           JUNCTION   1067.98  1067.98     0  02:02        1.54        1.59      -0.035
  YS02001774           JUNCTION      0.00   503.21     0  02:02           0       0.235       0.466
  YS02001779           JUNCTION      0.01   503.31     0  02:02    0.000144       0.193      -0.570
  YS02001783           JUNCTION      0.00  1165.93     0  02:00           0        3.67       0.007
  YS02001784           JUNCTION      1.06  1166.80     0  02:01      0.0305         3.7       0.014
  YS02001786           JUNCTION      0.06  1167.12     0  02:01     0.00162         3.7       0.019
  YS02001788           JUNCTION      0.07  1167.89     0  02:01     0.00204         3.7       0.008
  YS02001790           JUNCTION      0.15  1180.26     0  01:59     0.00446        3.71       0.029
  YS02001791           JUNCTION      0.00  1289.39     0  02:04           0        3.71      -0.031
  YS02001793           JUNCTION      0.00  1262.44     0  02:02           0        3.71       0.004
  YS02001882           JUNCTION      0.00    51.23     0  01:56           0      0.0127       5.033
  YS02001884           JUNCTION      0.00    78.78     0  01:56           0      0.0489       5.099
  YS02001887           JUNCTION    835.19   835.55     0  02:01        1.06        1.09       0.393
  YS02001890           JUNCTION      0.00   836.02     0  02:01           0        1.05       0.486
  YS02001895           JUNCTION      0.00   518.69     0  02:06           0       0.954       0.176
  YS02001898           JUNCTION      0.00   518.40     0  02:06           0       0.953      -0.002
  YS02001901           JUNCTION      0.00   523.13     0  01:57           0       0.955       0.334
  YS02001904           JUNCTION      0.00   526.04     0  01:57           0        0.96       0.274
  YS02001907           JUNCTION      0.00  1916.54     0  02:02           0        3.27       0.545
  YS02001910           JUNCTION      0.00  1403.48     0  02:02           0        2.32       0.311
  YS02001915           JUNCTION    928.36  1402.33     0  02:02        1.47        2.37       0.055
  YS02001918           JUNCTION      0.00   477.16     0  02:01           0       0.932       0.015
  YS02001920           JUNCTION      2.87   476.81     0  02:01      0.0827       0.913       0.091
  YS02001923           JUNCTION      0.04   501.39     0  01:57     0.00109       0.813      -0.104
  YS02001926           JUNCTION      0.05   699.18     0  01:58      0.0015        0.79      -0.104
  YS02001929           JUNCTION    445.62   588.55     0  01:58       0.773       0.777      -0.000
  YS02006553           JUNCTION      0.00   801.48     0  02:18           0        2.17       0.551
  YS02006556           JUNCTION      0.00   802.35     0  02:18           0        2.18       0.362
  YS02006558           JUNCTION   1098.71  1189.45     0  01:58        1.55         3.7       0.085
  YS02006561           JUNCTION      0.00  1188.02     0  01:58           0        3.67      -0.003
  YS02163301           JUNCTION      0.00   934.90     0  01:57           0        3.13       0.047
  YS02163601           JUNCTION      0.11  1395.65     0  01:57     0.00317        4.26       0.116
  YS02164001           JUNCTION      0.00  1394.97     0  01:57           0        4.26       0.054
  CC-1                 OUTFALL       0.00   683.00     0  00:00           0        3.06       0.000
  CC-2                 OUTFALL       0.00   683.00     0  00:00           0        2.87       0.000
  JK-1                 OUTFALL       0.00  1000.00     0  00:00           0        2.13       0.000
  JK-2                 OUTFALL       0.00  1000.00     0  00:00           0        0.36       0.000
  WSC                  OUTFALL       0.00   554.62     0  02:24           0        4.92       0.000
  CC-storage           STORAGE       0.00  3315.34     0  02:00           0        11.8      -0.078
  JK-storage           STORAGE       0.00  1233.91     0  02:02           0        3.86       0.216
  
  
  **********************
  Node Surcharge Summary
  **********************
  
  Surcharging occurs when water rises above the top of the highest conduit.
  ---------------------------------------------------------------------
                                               Max. Height   Min. Depth
                                   Hours       Above Crown    Below Rim
  Node                 Type      Surcharged         Meters       Meters
  ---------------------------------------------------------------------
  WS02004404           JUNCTION        0.01          0.031        2.749
  WS02006109           JUNCTION        1.77          0.399        1.421
  WS02006110           JUNCTION        0.58          0.350        1.500
  WS02006112           JUNCTION        0.79          0.086        1.594
  WS02006228           JUNCTION        1.76          0.594        1.606
  WS02006229           JUNCTION        1.77          0.678        1.772
  WS02006230           JUNCTION        0.59          0.748        0.822
  WS02006231           JUNCTION        0.75          0.757        0.773
  WS02006232           JUNCTION        1.79          0.757        0.723
  WS02006234           JUNCTION        1.04          1.212        0.028
  WS02006235           JUNCTION        1.73          1.005        0.285
  WS02006238           JUNCTION        1.78          1.056        0.374
  WS02006239           JUNCTION        1.75          0.961        0.329
  WS02006240           JUNCTION        1.76          0.883        0.507
  WS02006242           JUNCTION        1.79          0.820        0.000
  WS02006243           JUNCTION        1.76          0.687        0.083
  WS02006245           JUNCTION        1.76          0.598        0.252
  WS02006247           JUNCTION        1.76          0.573        0.187
  WS02006248           JUNCTION        1.75          0.380        0.000
  WS02006249           JUNCTION        1.75          0.390        0.000
  WS02006251           JUNCTION        0.83          0.404        0.776
  WS02006252           JUNCTION        1.90          1.100        0.000
  WS02006256           JUNCTION        4.62          2.050        0.000
  YS02001580           JUNCTION        0.55          0.450        0.000
  YS02001583           JUNCTION        0.55          0.500        0.000
  YS02001586           JUNCTION        0.67          0.510        0.000
  YS02001590           JUNCTION        0.74          0.750        0.000
  YS02001593           JUNCTION        0.75          0.774        0.066
  YS02001596           JUNCTION        0.85          0.969        0.101
  YS02001600           JUNCTION        0.98          1.190        0.000
  YS02001601           JUNCTION        1.33          1.440        0.000
  YS02001602           JUNCTION        1.22          1.270        0.000
  YS02001605           JUNCTION        1.16          1.180        0.000
  YS02001607           JUNCTION        0.73          0.652        0.028
  YS02001610           JUNCTION        0.76          0.680        0.000
  YS02001613           JUNCTION        0.73          0.700        0.000
  YS02001616           JUNCTION        0.69          0.610        0.000
  YS02001619           JUNCTION        0.67          0.610        0.000
  YS02001622           JUNCTION        0.67          0.620        0.000
  YS02001625           JUNCTION        0.84          0.780        0.000
  YS02001629           JUNCTION        0.63          0.470        0.000
  YS02001633           JUNCTION        0.87          1.009        0.051
  YS02001641           JUNCTION        0.82          0.958        0.142
  YS02001644           JUNCTION        0.79          0.920        0.000
  YS02001647           JUNCTION        0.61          0.817        0.083
  YS02001649           JUNCTION        0.73          1.050        0.000
  YS02001652           JUNCTION        0.54          0.946        0.184
  YS02001655           JUNCTION        0.38          1.006        0.194
  YS02001658           JUNCTION        0.20          1.051        0.249
  YS02001661           JUNCTION        0.02          0.512        0.878
  YS02001745           JUNCTION        0.01          1.011        0.339
  YS02001748           JUNCTION        0.16          1.190        0.000
  YS02001751           JUNCTION        0.28          1.200        0.000
  YS02001754           JUNCTION        0.46          1.150        0.000
  YS02001757           JUNCTION        0.80          1.210        0.000
  YS02001759           JUNCTION        0.70          1.189        0.021
  YS02001762           JUNCTION        0.67          1.150        0.000
  YS02001765           JUNCTION        0.62          1.100        0.000
  YS02001767           JUNCTION        0.59          1.030        0.000
  YS02001770           JUNCTION        0.57          0.920        0.000
  YS02001774           JUNCTION        0.65          1.024        0.026
  YS02001779           JUNCTION        0.44          0.680        0.000
  YS02001783           JUNCTION        0.49          0.568        1.032
  YS02001784           JUNCTION        0.47          0.435        1.055
  YS02001786           JUNCTION        0.37          0.124        1.306
  YS02001882           JUNCTION        0.44          0.830        0.000
  YS02001884           JUNCTION        0.45          0.870        0.000
  YS02001887           JUNCTION        0.48          0.950        0.000
  YS02001890           JUNCTION        0.50          0.760        0.000
  YS02001895           JUNCTION        0.43          0.750        0.000
  YS02001898           JUNCTION        0.43          0.740        0.000
  YS02001901           JUNCTION        0.47          0.870        0.000
  YS02001904           JUNCTION        0.46          0.850        0.000
  YS02001907           JUNCTION        0.68          0.950        0.000
  YS02001910           JUNCTION        0.52          1.100        0.000
  YS02001915           JUNCTION        0.44          0.945        0.055
  YS02001918           JUNCTION        0.36          0.810        0.000
  YS02001920           JUNCTION        0.38          1.140        0.000
  YS02001923           JUNCTION        0.08          0.820        0.000
  YS02001926           JUNCTION        0.11          0.900        0.000
  YS02001929           JUNCTION        0.01          0.780        0.000
  YS02006553           JUNCTION        0.70          1.190        0.000
  YS02006556           JUNCTION        0.60          1.350        0.000
  YS02006558           JUNCTION        0.59          1.400        0.000
  YS02006561           JUNCTION        0.33          0.315        0.835
  YS02163301           JUNCTION        0.85          0.922        0.108
  YS02163601           JUNCTION        0.89          1.051        0.029
  YS02164001           JUNCTION        0.82          0.966        0.134
  
  
  *********************
  Node Flooding Summary
  *********************
  
  Flooding refers to all water that overflows a node, whether it ponds or not.
  --------------------------------------------------------------------------
                                                             Total   Maximum
                                 Maximum   Time of Max       Flood    Ponded
                        Hours       Rate    Occurrence      Volume     Depth
  Node                 Flooded       LPS   days hr:min    10^6 ltr    Meters
  --------------------------------------------------------------------------
  WS02006242              0.01     11.09      0  02:10       0.000     0.000
  WS02006248              0.01     25.35      0  02:20       0.000     0.000
  WS02006249              0.80    111.72      0  02:00       0.188     0.000
  WS02006252              0.01    245.63      0  00:00       0.000     0.000
  WS02006256              1.07    293.19      0  00:00       0.368     0.000
  YS02001580              0.01     97.84      0  01:55       0.000     0.000
  YS02001583              0.01    166.97      0  01:55       0.000     0.000
  YS02001586              0.44    368.89      0  02:04       0.293     0.000
  YS02001590              0.01     47.66      0  01:53       0.000     0.000
  YS02001600              0.01      0.89      0  01:55       0.000     0.000
  YS02001601              0.61   1194.53      0  02:03       1.226     0.000
  YS02001602              0.52     62.01      0  02:14       0.105     0.000
  YS02001605              0.01      3.64      0  01:55       0.000     0.000
  YS02001610              0.45    656.41      0  02:04       0.574     0.000
  YS02001613              0.01      9.99      0  01:55       0.000     0.000
  YS02001616              0.01     19.61      0  01:55       0.000     0.000
  YS02001619              0.01     55.29      0  01:55       0.000     0.000
  YS02001622              0.01    180.11      0  01:55       0.000     0.000
  YS02001625              0.42   1273.94      0  02:04       1.013     0.000
  YS02001629              0.10    267.93      0  02:01       0.055     0.000
  YS02001644              0.18    940.06      0  02:01       0.368     0.000
  YS02001649              0.01    121.67      0  01:59       0.001     0.000
  YS02001748              0.01    285.21      0  01:59       0.000     0.000
  YS02001751              0.01     63.00      0  01:59       0.000     0.000
  YS02001754              0.01     51.36      0  01:59       0.000     0.000
  YS02001757              0.01     47.85      0  01:59       0.000     0.000
  YS02001762              0.01     13.00      0  01:59       0.000     0.000
  YS02001765              0.01      9.89      0  01:59       0.000     0.000
  YS02001767              0.01      3.10      0  01:59       0.000     0.000
  YS02001770              0.01     59.12      0  01:59       0.001     0.000
  YS02001779              0.16    503.27      0  02:02       0.177     0.000
  YS02001882              0.01      2.14      0  01:57       0.000     0.000
  YS02001884              0.01      2.47      0  01:57       0.000     0.000
  YS02001887              0.01      1.67      0  01:57       0.000     0.000
  YS02001890              0.15    322.51      0  02:01       0.093     0.000
  YS02001895              0.01      1.53      0  01:57       0.000     0.000
  YS02001898              0.01      7.40      0  01:57       0.000     0.000
  YS02001901              0.01      7.41      0  01:57       0.000     0.000
  YS02001904              0.01     12.49      0  01:57       0.000     0.000
  YS02001907              0.31   1855.63      0  02:02       1.095     0.000
  YS02001910              0.01      9.07      0  01:57       0.000     0.000
  YS02001918              0.01    269.44      0  01:58       0.004     0.000
  YS02001920              0.01     51.24      0  01:58       0.000     0.000
  YS02001923              0.01    307.45      0  01:58       0.001     0.000
  YS02001926              0.01    119.35      0  01:58       0.001     0.000
  YS02001929              0.01    220.98      0  01:58       0.001     0.000
  YS02006553              0.01      5.85      0  01:57       0.000     0.000
  YS02006556              0.01     22.45      0  01:57       0.000     0.000
  YS02006558              0.01      9.31      0  01:57       0.000     0.000
  
  
  **********************
  Storage Volume Summary
  **********************
  
  ------------------------------------------------------------------------------------------------
                         Average    Avg   Evap  Exfil     Maximum    Max    Time of Max    Maximum
                          Volume   Pcnt   Pcnt   Pcnt      Volume   Pcnt     Occurrence    Outflow
  Storage Unit           1000 m³   Full   Loss   Loss     1000 m³   Full    days hr:min        LPS
  ------------------------------------------------------------------------------------------------
  CC-storage               2.688   41.9    0.0    0.0       4.699   73.3       0  02:27    1783.53
  JK-storage               0.159   54.7    0.0    0.0       0.212   72.9       0  02:20    2300.00
  
  
  ***********************
  Outfall Loading Summary
  ***********************
  
  -----------------------------------------------------------
                         Flow       Avg       Max       Total
                         Freq      Flow      Flow      Volume
  Outfall Node           Pcnt       LPS       LPS    10^6 ltr
  -----------------------------------------------------------
  CC-1                  17.87    683.00    683.00       3.055
  CC-2                  16.67    683.00    683.00       2.871
  JK-1                  10.34   1000.00   1000.00       2.132
  JK-2                   1.19   1000.00   1000.00       0.360
  WSC                   99.96    243.52    554.62       4.920
  -----------------------------------------------------------
  System                29.20   3609.52   3889.81      13.338
  
  
  ********************
  Link Flow Summary
  ********************
  
  -----------------------------------------------------------------------------
                                 Maximum  Time of Max   Maximum    Max/    Max/
                                  |Flow|   Occurrence   |Veloc|    Full    Full
  Link                 Type          LPS  days hr:min     m/sec    Flow   Depth
  -----------------------------------------------------------------------------
  1                    CONDUIT    554.62     0  02:24      2.83    0.19    0.30
  WS02003060WS02003069 CONDUIT    552.99     0  02:21      1.64    0.22    0.34
  WS02003066WSF200     CONDUIT    536.33     0  02:21      2.85    0.09    0.22
  WS02003067WS02003066 CONDUIT    536.24     0  02:20      1.21    0.17    0.42
  WS02003069WS02003072 CONDUIT    552.97     0  02:22      1.37    0.27    0.39
  WS02003072WS02003073 CONDUIT    552.90     0  02:23      1.43    1.19    0.37
  WS02004401WS02004402 CONDUIT    540.33     0  02:28      0.98    0.65    0.89
  WS02004402WS02004403 CONDUIT    539.83     0  02:22      0.97    0.78    0.91
  WS02004403WS02004404 CONDUIT    556.23     0  02:19      0.92    0.40    0.96
  WS02004404WS02004405 CONDUIT    603.90     0  02:19      1.08    5.92    0.98
  WS02004405WS02004406 CONDUIT    545.29     0  02:18      0.99    1.08    0.96
  WS02004406WS02004407 CONDUIT    539.29     0  02:18      1.04    0.24    0.63
  WS02004407WS02004409 CONDUIT    538.46     0  02:19      1.56    0.19    0.48
  WS02004409WS02004410 CONDUIT    537.70     0  02:19      1.03    0.70    0.67
  WS02004410WS02004411 CONDUIT    537.07     0  02:19      0.97    0.73    0.69
  WS02004411WS02004412 CONDUIT    536.72     0  02:20      0.92    0.76    0.69
  WS02004412WS02004413 CONDUIT    536.47     0  02:20      0.82    0.36    0.78
  WS02004413WS02003067 CONDUIT    536.10     0  02:20      1.11    0.23    0.59
  WS02006109WS02006110 CONDUIT    562.57     0  02:39      1.12    1.08    1.00
  WS02006110WS02006113 CONDUIT    567.88     0  02:27      1.37    0.52    0.79
  WS02006111WS02006112 CONDUIT    544.98     0  03:44      1.81    0.26    0.67
  WS02006112WS02006115 CONDUIT    549.87     0  02:51      0.85    0.32    0.88
  WS02006113WS02006111 CONDUIT    565.12     0  03:44      2.47    0.68    0.46
  WS02006115WS02006116 CONDUIT    540.09     0  02:45      1.04    0.69    0.78
  WS02006116WS02004401 CONDUIT    539.80     0  02:23      0.98    0.74    0.86
  WS02006228WS02006109 CONDUIT    562.43     0  02:39      1.12    2.46    1.00
  WS02006229WS02006228 CONDUIT    562.68     0  02:39      1.14    1.86    1.00
  WS02006230WS02006229 CONDUIT    561.93     0  02:39      1.46   12.51    1.00
  WS02006231WS02006230 CONDUIT    586.09     0  02:40      1.58    8.89    1.00
  WS02006232WS02006231 CONDUIT    578.79     0  02:26      1.51    1.21    1.00
  WS02006234WS02006232 CONDUIT    578.14     0  02:26      1.50    1.17    1.00
  WS02006235WS02006234 CONDUIT    574.17     0  02:26      1.49    6.06    1.00
  WS02006238WS02006235 CONDUIT    424.52     0  02:25      1.57    0.95    1.00
  WS02006239WS02006238 CONDUIT    423.70     0  02:25      1.10    1.36    1.00
  WS02006240WS02006239 CONDUIT    423.13     0  02:25      1.24    1.33    1.00
  WS02006242WS02006240 CONDUIT    419.88     0  02:25      1.13    1.67    1.00
  WS02006243WS02006242 CONDUIT    419.49     0  02:25      1.40    0.90    1.00
  WS02006245WS02006243 CONDUIT    419.45     0  02:25      1.45    1.24    1.00
  WS02006247WS02006245 CONDUIT    419.60     0  02:25      1.43    3.33    1.00
  WS02006248WS02006247 CONDUIT    419.70     0  02:25      1.44    0.91    1.00
  WS02006249WS02006248 CONDUIT    421.36     0  02:25      1.36    2.31    1.00
  WS02006251WS02006249 CONDUIT    459.02     0  00:00      1.99    1.32    1.00
  WS02006252WS02006251 CONDUIT    406.48     0  02:00     24.61    1.49    1.00
  WS02006256WS02006235 CONDUIT    289.22     0  01:50      4.23    3.06    1.00
  WSF200WS02003060     CONDUIT    536.63     0  02:21      2.06    0.12    0.28
  YS02001580YS02001583 CONDUIT    120.02     0  01:55      0.75    0.47    1.00
  YS02001583YS02001586 CONDUIT    177.23     0  01:55      0.75    0.27    1.00
  YS02001586YS02001590 CONDUIT    318.28     0  02:22      1.26    0.56    1.00
  YS02001590YS02001593 CONDUIT    318.14     0  02:09      1.13    2.00    1.00
  YS02001593YS02001596 CONDUIT    318.00     0  02:14      1.74    0.50    1.00
  YS02001596YS02001600 CONDUIT    318.18     0  02:22      1.23    0.62    1.00
  YS02001600YS02001601 CONDUIT    318.53     0  02:22      1.13    0.55    1.00
  YS02001601YS02001602 CONDUIT    535.46     0  01:55      1.89    1.93    1.00
  YS02001602YS02001605 CONDUIT    535.39     0  01:55      1.89   11.33    1.00
  YS02001605YS02001607 CONDUIT    535.29     0  01:55      1.89    2.94    1.00
  YS02001607YS02001610 CONDUIT    544.56     0  01:55      0.69    0.52    1.00
  YS02001610YS02001613 CONDUIT    548.75     0  01:55      0.70    0.63    1.00
  YS02001613YS02001616 CONDUIT    548.65     0  01:55      0.70    0.47    1.00
  YS02001616YS02001619 CONDUIT    521.47     0  01:55      0.67    0.91    1.00
  YS02001619YS02001622 CONDUIT    942.19     0  02:01      1.21    1.39    1.00
  YS02001622YS02001625 CONDUIT    942.80     0  01:55      1.20    0.50    1.00
  YS02001625YS02001629 CONDUIT    942.73     0  01:55      1.21    0.45    1.00
  YS02001629YS02163301 CONDUIT    934.90     0  01:57      1.19    1.15    1.00
  YS02001633YS02163601 CONDUIT   1395.54     0  01:57      1.78    1.46    1.00
  YS02001641YS02001644 CONDUIT   1394.56     0  01:57      1.78    4.51    1.00
  YS02001644YS02001647 CONDUIT   1816.63     0  01:57      2.36    1.07    1.00
  YS02001647YS02001649 CONDUIT   1811.67     0  01:57      2.35    0.96    1.00
  YS02001649YS02001757 CONDUIT   2009.77     0  01:58      2.56    1.22    1.00
  YS02001652YS02001649 CONDUIT    947.62     0  02:00      1.21    0.47    1.00
  YS02001655YS02001652 CONDUIT    947.23     0  02:00      1.37    0.46    1.00
  YS02001658YS02001655 CONDUIT    946.16     0  02:00      1.95    0.40    1.00
  YS02001661YS02001658 CONDUIT    945.81     0  02:00      2.34    0.37    1.00
  YS02001664YS02001661 CONDUIT    946.95     0  02:00      2.38    0.30    0.98
  YS02001745YS02001748 CONDUIT    604.88     0  01:59      2.23    0.23    1.00
  YS02001748YS02001751 CONDUIT    606.11     0  01:59      1.76    0.31    1.00
  YS02001751YS02001754 CONDUIT    606.37     0  01:59      1.51    0.29    1.00
  YS02001754YS02001757 CONDUIT    606.44     0  01:59      0.77    0.24    1.00
  YS02001757CaochengTiaoxuchi CONDUIT   3315.34     0  02:00      4.22    1.43    1.00
  YS02001759YS02001757 CONDUIT   1357.91     0  01:59      1.73    0.96    1.00
  YS02001762YS02001759 CONDUIT    783.11     0  01:59      1.00    0.90    1.00
  YS02001765YS02001762 CONDUIT    785.16     0  01:59      1.00    0.74    1.00
  YS02001767YS02001765 CONDUIT    786.74     0  01:59      1.00    0.99    1.00
  YS02001770YS02001767 CONDUIT    786.81     0  01:59      1.00    3.12    1.00
  YS02001774YS02001770 CONDUIT    503.21     0  02:02      0.64    0.32    1.00
  YS02001779YS02001774 CONDUIT    503.30     0  02:02      0.64    0.25    1.00
  YS02001783YS02001784 CONDUIT   1165.74     0  02:01      2.32    1.61    1.00
  YS02001784YS02001785 CONDUIT   1167.06     0  02:01      2.32    2.72    1.00
  YS02001786YS02001788 CONDUIT   1167.81     0  02:01      2.49    2.25    0.89
  YS02001788YS02001790 CONDUIT   1180.11     0  01:59      2.72    0.87    0.84
  YS02001790YS02001791 CONDUIT   1289.39     0  02:04      3.43    1.40    0.70
  YS02001791YS02001793 CONDUIT   1262.44     0  02:02      6.71    0.54    0.45
  YS02001793JiankangQianchi CONDUIT   1233.91     0  02:02      2.41    0.10    0.65
  YS02001882YS02001884 CONDUIT     51.23     0  01:56      0.11    0.06    1.00
  YS02001884YS02001887 CONDUIT     78.78     0  01:56      0.11    0.10    1.00
  YS02001887YS02001890 CONDUIT    836.02     0  02:01      1.06    1.43    1.00
  YS02001890YS02001895 CONDUIT    518.69     0  02:06      0.66    0.24    1.00
  YS02001895YS02001898 CONDUIT    518.40     0  02:06      0.66    0.90    1.00
  YS02001898YS02001901 CONDUIT    523.13     0  01:57      0.67    0.34    1.00
  YS02001901YS02001904 CONDUIT    526.04     0  01:57      0.67    0.82    1.00
  YS02001904YS02001907 CONDUIT    529.26     0  01:57      0.67    0.19    1.00
  YS02001907YS02006553 CONDUIT    801.48     0  02:18      0.89    0.94    1.00
  YS02001910YS02001907 CONDUIT   1403.00     0  02:02      1.79    0.79    1.00
  YS02001915YS02001910 CONDUIT   1403.48     0  02:02      1.79    0.70    1.00
  YS02001918YS02001915 CONDUIT    477.80     0  02:02      0.61    0.26    1.00
  YS02001920YS02001918 CONDUIT    477.16     0  02:01      0.65    0.46    1.00
  YS02001923YS02001920 CONDUIT    473.94     0  02:01      0.70    0.21    1.00
  YS02001926YS02001923 CONDUIT    471.67     0  02:01      0.98    0.67    1.00
  YS02001929YS02001926 CONDUIT    471.51     0  02:01      1.17    0.22    1.00
  YS02006553YS02006556 CONDUIT    802.35     0  02:18      1.02    0.69    1.00
  YS02006556YS02006558 CONDUIT    803.86     0  02:18      1.02    0.63    1.00
  YS02006558YS02006561 CONDUIT   1188.02     0  01:58      4.20    2.63    1.00
  YS02006561YS02001783 CONDUIT   1165.93     0  02:00      2.32    0.60    1.00
  YS02163301YS02001633 CONDUIT    935.95     0  01:57      1.19    0.88    1.00
  YS02163601YS02164001 CONDUIT   1394.97     0  01:57      1.78    1.24    1.00
  YS02164001YS02001641 CONDUIT   1393.61     0  01:57      1.77    1.90    1.00
  CC-R1                PUMP       683.00     0  00:00              1.00
  CC-R2                PUMP       683.00     0  00:00              1.00
  CC-S1                PUMP       200.00     0  00:00              1.00
  CC-S2                PUMP       200.00     0  00:00              1.00
  JK-R1                PUMP      1000.00     0  00:00              1.00
  JK-R2                PUMP      1000.00     0  00:00              1.00
  JK-S                 PUMP       300.00     0  00:00              1.00
  
  
  ***************************
  Flow Classification Summary
  ***************************
  
  -------------------------------------------------------------------------------------
                      Adjusted    ---------- Fraction of Time in Flow Class ---------- 
                       /Actual         Up    Down  Sub   Sup   Up    Down  Norm  Inlet 
  Conduit               Length    Dry  Dry   Dry   Crit  Crit  Crit  Crit  Ltd   Ctrl  
  -------------------------------------------------------------------------------------
  1                       1.00   0.00  0.00  0.00  0.00  1.00  0.00  0.00  0.54  0.00
  WS02003060WS02003069    1.00   0.00  0.00  0.00  0.98  0.02  0.00  0.00  0.73  0.00
  WS02003066WSF200        1.00   0.13  0.00  0.00  0.00  0.87  0.00  0.00  0.78  0.00
  WS02003067WS02003066    1.00   0.10  0.02  0.00  0.88  0.00  0.00  0.00  0.00  0.00
  WS02003069WS02003072    1.00   0.00  0.00  0.00  0.99  0.01  0.00  0.00  0.76  0.00
  WS02003072WS02003073    1.00   0.00  0.00  0.00  0.00  0.00  0.00  1.00  0.00  0.00
  WS02004401WS02004402    1.00   0.02  0.00  0.00  0.98  0.00  0.00  0.00  0.00  0.00
  WS02004402WS02004403    1.00   0.02  0.00  0.00  0.97  0.00  0.00  0.00  0.00  0.00
  WS02004403WS02004404    1.00   0.00  0.03  0.00  0.97  0.00  0.00  0.00  0.00  0.00
  WS02004404WS02004405    1.00   0.00  0.00  0.00  1.00  0.00  0.00  0.00  0.01  0.00
  WS02004405WS02004406    1.00   0.00  0.00  0.00  1.00  0.00  0.00  0.00  0.00  0.00
  WS02004406WS02004407    1.00   0.00  0.05  0.00  0.95  0.00  0.00  0.00  0.00  0.00
  WS02004407WS02004409    1.00   0.05  0.00  0.00  0.94  0.01  0.00  0.00  0.94  0.00
  WS02004409WS02004410    1.00   0.05  0.00  0.00  0.95  0.00  0.00  0.00  0.03  0.00
  WS02004410WS02004411    1.00   0.05  0.00  0.00  0.95  0.00  0.00  0.00  0.01  0.00
  WS02004411WS02004412    1.00   0.05  0.00  0.00  0.95  0.00  0.00  0.00  0.00  0.00
  WS02004412WS02004413    1.00   0.05  0.00  0.00  0.94  0.00  0.00  0.00  0.01  0.00
  WS02004413WS02003067    1.00   0.06  0.04  0.00  0.00  0.00  0.90  0.00  0.00  0.00
  WS02006109WS02006110    1.00   0.00  0.01  0.00  0.98  0.00  0.01  0.00  0.00  0.00
  WS02006110WS02006113    1.00   0.01  0.01  0.00  0.98  0.00  0.00  0.00  0.00  0.00
  WS02006111WS02006112    1.00   0.02  0.00  0.00  0.98  0.00  0.00  0.00  0.98  0.00
  WS02006112WS02006115    1.00   0.02  0.00  0.00  0.97  0.00  0.00  0.00  0.00  0.00
  WS02006113WS02006111    1.00   0.02  0.00  0.00  0.00  0.98  0.00  0.00  0.13  0.00
  WS02006115WS02006116    1.00   0.02  0.00  0.00  0.97  0.00  0.00  0.01  0.00  0.00
  WS02006116WS02004401    1.00   0.02  0.00  0.00  0.98  0.00  0.00  0.00  0.00  0.00
  WS02006228WS02006109    1.00   0.00  0.00  0.00  1.00  0.00  0.00  0.00  0.00  0.00
  WS02006229WS02006228    1.00   0.00  0.00  0.00  0.99  0.00  0.00  0.01  0.00  0.00
  WS02006230WS02006229    1.00   0.00  0.00  0.00  0.99  0.00  0.00  0.01  0.00  0.00
  WS02006231WS02006230    1.00   0.00  0.00  0.00  0.23  0.00  0.77  0.00  0.00  0.00
  WS02006232WS02006231    1.00   0.00  0.00  0.00  0.98  0.00  0.01  0.00  0.00  0.00
  WS02006234WS02006232    1.00   0.00  0.00  0.00  1.00  0.00  0.00  0.00  0.28  0.00
  WS02006235WS02006234    1.00   0.00  0.00  0.00  0.66  0.00  0.34  0.00  0.00  0.00
  WS02006238WS02006235    1.00   0.00  0.00  0.00  1.00  0.00  0.00  0.00  0.00  0.00
  WS02006239WS02006238    1.00   0.00  0.00  0.00  1.00  0.00  0.00  0.00  0.42  0.00
  WS02006240WS02006239    1.00   0.00  0.00  0.00  0.52  0.00  0.00  0.47  0.01  0.00
  WS02006242WS02006240    1.00   0.00  0.00  0.00  0.99  0.00  0.01  0.00  0.00  0.00
  WS02006243WS02006242    1.00   0.00  0.00  0.00  0.98  0.00  0.00  0.01  0.56  0.00
  WS02006245WS02006243    1.00   0.00  0.00  0.00  0.61  0.00  0.00  0.39  0.00  0.00
  WS02006247WS02006245    1.00   0.00  0.00  0.00  0.98  0.00  0.00  0.02  0.00  0.00
  WS02006248WS02006247    1.00   0.00  0.00  0.00  0.99  0.00  0.00  0.01  0.21  0.00
  WS02006249WS02006248    1.00   0.00  0.00  0.00  0.44  0.00  0.56  0.00  0.00  0.00
  WS02006251WS02006249    1.00   0.00  0.00  0.00  0.99  0.01  0.00  0.00  0.57  0.00
  WS02006252WS02006251    1.00   0.00  0.60  0.00  0.10  0.00  0.30  0.00  0.00  0.00
  WS02006256WS02006235    1.00   0.00  0.00  0.00  1.00  0.00  0.00  0.00  0.00  0.00
  WSF200WS02003060        1.00   0.00  0.13  0.00  0.42  0.45  0.00  0.00  0.53  0.00
  YS02001580YS02001583    1.00   0.24  0.58  0.00  0.18  0.00  0.00  0.00  0.67  0.00
  YS02001583YS02001586    1.00   0.43  0.33  0.00  0.24  0.00  0.00  0.00  0.67  0.00
  YS02001586YS02001590    1.00   0.13  0.00  0.00  0.42  0.04  0.00  0.42  0.36  0.00
  YS02001590YS02001593    1.00   0.13  0.01  0.00  0.11  0.00  0.76  0.00  0.00  0.00
  YS02001593YS02001596    1.00   0.14  0.00  0.00  0.12  0.01  0.00  0.73  0.02  0.00
  YS02001596YS02001600    1.00   0.14  0.00  0.00  0.18  0.01  0.00  0.67  0.05  0.00
  YS02001600YS02001601    1.00   0.13  0.01  0.00  0.86  0.00  0.00  0.00  0.62  0.00
  YS02001601YS02001602    1.00   0.13  0.01  0.00  0.86  0.00  0.00  0.00  0.00  0.00
  YS02001602YS02001605    1.00   0.14  0.00  0.00  0.86  0.00  0.00  0.00  0.00  0.00
  YS02001605YS02001607    1.00   0.14  0.00  0.00  0.86  0.00  0.00  0.00  0.00  0.00
  YS02001607YS02001610    1.00   0.13  0.01  0.00  0.86  0.00  0.00  0.00  0.02  0.00
  YS02001610YS02001613    1.00   0.13  0.00  0.00  0.87  0.00  0.00  0.00  0.01  0.00
  YS02001613YS02001616    1.00   0.13  0.00  0.00  0.87  0.00  0.00  0.00  0.01  0.00
  YS02001616YS02001619    1.00   0.13  0.00  0.00  0.87  0.00  0.00  0.00  0.00  0.00
  YS02001619YS02001622    1.00   0.13  0.00  0.00  0.87  0.00  0.00  0.00  0.29  0.00
  YS02001622YS02001625    1.00   0.13  0.00  0.00  0.87  0.00  0.00  0.00  0.05  0.00
  YS02001625YS02001629    1.00   0.13  0.05  0.00  0.15  0.00  0.67  0.00  0.00  0.00
  YS02001629YS02163301    1.00   0.16  0.01  0.00  0.83  0.00  0.00  0.00  0.00  0.00
  YS02001633YS02163601    1.00   0.00  0.01  0.00  0.99  0.00  0.00  0.00  0.15  0.00
  YS02001641YS02001644    1.00   0.00  0.01  0.00  0.99  0.00  0.00  0.00  0.00  0.00
  YS02001644YS02001647    1.00   0.00  0.18  0.00  0.82  0.00  0.00  0.00  0.00  0.00
  YS02001647YS02001649    1.00   0.00  0.18  0.00  0.54  0.28  0.00  0.00  0.57  0.00
  YS02001649YS02001757    1.00   0.00  0.00  0.00  0.84  0.16  0.00  0.00  0.44  0.00
  YS02001652YS02001649    1.00   0.00  0.00  0.00  0.96  0.04  0.00  0.00  0.75  0.00
  YS02001655YS02001652    1.00   0.00  0.00  0.00  0.17  0.01  0.00  0.82  0.04  0.00
  YS02001658YS02001655    1.00   0.00  0.14  0.00  0.66  0.20  0.00  0.00  0.69  0.00
  YS02001661YS02001658    1.00   0.14  0.00  0.00  0.50  0.36  0.00  0.00  0.70  0.00
  YS02001664YS02001661    1.00   0.13  0.00  0.00  0.79  0.08  0.00  0.00  0.85  0.00
  YS02001745YS02001748    1.00   0.00  0.00  0.00  0.09  0.01  0.00  0.90  0.04  0.00
  YS02001748YS02001751    1.00   0.00  0.00  0.00  0.83  0.17  0.00  0.00  0.77  0.00
  YS02001751YS02001754    1.00   0.00  0.00  0.00  0.15  0.00  0.00  0.85  0.02  0.00
  YS02001754YS02001757    1.00   0.00  0.00  0.00  1.00  0.00  0.00  0.00  0.84  0.00
  YS02001757CaochengTiaoxuchi    1.00   0.00  0.00  0.00  1.00  0.00  0.00  0.00  0.57  0.00
  YS02001759YS02001757    1.00   0.00  0.00  0.00  1.00  0.00  0.00  0.00  0.54  0.00
  YS02001762YS02001759    1.00   0.00  0.00  0.00  1.00  0.00  0.00  0.00  0.06  0.00
  YS02001765YS02001762    1.00   0.00  0.00  0.00  1.00  0.00  0.00  0.00  0.71  0.00
  YS02001767YS02001765    1.00   0.00  0.00  0.00  1.00  0.00  0.00  0.00  0.01  0.00
  YS02001770YS02001767    1.00   0.00  0.00  0.00  1.00  0.00  0.00  0.00  0.00  0.00
  YS02001774YS02001770    1.00   0.00  0.13  0.00  0.69  0.00  0.17  0.00  0.03  0.00
  YS02001779YS02001774    1.00   0.00  0.00  0.00  1.00  0.00  0.00  0.00  0.79  0.00
  YS02001783YS02001784    1.00   0.00  0.19  0.00  0.81  0.00  0.00  0.00  0.56  0.00
  YS02001784YS02001785    1.00   0.00  0.00  0.00  1.00  0.00  0.00  0.00  0.17  0.00
  YS02001786YS02001788    1.00   0.00  0.00  0.00  0.80  0.20  0.00  0.00  0.00  0.00
  YS02001788YS02001790    1.00   0.00  0.00  0.00  0.22  0.78  0.00  0.00  0.82  0.00
  YS02001790YS02001791    1.00   0.00  0.00  0.00  0.01  0.99  0.00  0.00  0.15  0.00
  YS02001791YS02001793    1.00   0.00  0.00  0.00  0.00  1.00  0.00  0.00  0.01  0.00
  YS02001793JiankangQianchi    1.00   0.00  0.00  0.00  0.99  0.01  0.00  0.00  0.96  0.00
  YS02001882YS02001884    1.00   0.15  0.01  0.00  0.84  0.00  0.00  0.00  0.00  0.00
  YS02001884YS02001887    1.00   0.06  0.05  0.00  0.89  0.00  0.00  0.00  0.00  0.00
  YS02001887YS02001890    1.00   0.00  0.00  0.00  0.97  0.00  0.03  0.00  0.00  0.00
  YS02001890YS02001895    1.00   0.00  0.17  0.00  0.83  0.00  0.00  0.00  0.00  0.00
  YS02001895YS02001898    1.00   0.17  0.00  0.00  0.81  0.00  0.02  0.00  0.00  0.00
  YS02001898YS02001901    1.00   0.17  0.00  0.00  0.83  0.00  0.00  0.00  0.01  0.00
  YS02001901YS02001904    1.00   0.17  0.00  0.00  0.83  0.00  0.00  0.00  0.00  0.00
  YS02001904YS02001907    1.00   0.00  0.17  0.00  0.83  0.00  0.00  0.00  0.00  0.00
  YS02001907YS02006553    1.00   0.00  0.02  0.00  0.98  0.00  0.00  0.00  0.00  0.00
  YS02001910YS02001907    1.00   0.00  0.00  0.00  0.97  0.00  0.00  0.03  0.12  0.00
  YS02001915YS02001910    1.00   0.00  0.00  0.00  0.96  0.03  0.00  0.00  0.16  0.00
  YS02001918YS02001915    1.00   0.00  0.01  0.00  0.98  0.02  0.00  0.00  0.76  0.00
  YS02001920YS02001918    1.00   0.00  0.01  0.00  0.99  0.00  0.00  0.00  0.00  0.00
  YS02001923YS02001920    1.00   0.00  0.00  0.00  1.00  0.00  0.00  0.00  0.93  0.00
  YS02001926YS02001923    1.00   0.00  0.07  0.00  0.05  0.00  0.87  0.00  0.00  0.00
  YS02001929YS02001926    1.00   0.00  0.13  0.00  0.87  0.00  0.00  0.00  0.83  0.00
  YS02006553YS02006556    1.00   0.01  0.00  0.00  0.99  0.00  0.00  0.00  0.03  0.00
  YS02006556YS02006558    1.00   0.00  0.00  0.00  1.00  0.00  0.00  0.00  0.00  0.00
  YS02006558YS02006561    1.00   0.19  0.00  0.00  0.05  0.76  0.00  0.00  0.19  0.00
  YS02006561YS02001783    1.00   0.19  0.00  0.00  0.08  0.73  0.00  0.00  0.69  0.00
  YS02163301YS02001633    1.00   0.00  0.16  0.00  0.84  0.00  0.00  0.00  0.00  0.00
  YS02163601YS02164001    1.00   0.00  0.08  0.00  0.92  0.00  0.00  0.00  0.00  0.00
  YS02164001YS02001641    1.00   0.01  0.07  0.00  0.92  0.00  0.00  0.00  0.06  0.00
  
  
  *************************
  Conduit Surcharge Summary
  *************************
  
  ----------------------------------------------------------------------------
                                                           Hours        Hours 
                         --------- Hours Full --------   Above Full   Capacity
  Conduit                Both Ends  Upstream  Dnstream   Normal Flow   Limited
  ----------------------------------------------------------------------------
  WS02003072WS02003073        0.01      0.01      0.01      1.11         0.01
  WS02004403WS02004404        0.01      0.01      0.01      0.01         0.01
  WS02004404WS02004405        0.01      0.01      0.01      3.29         0.01
  WS02004405WS02004406        0.01      0.01      0.01      0.52         0.01
  WS02006109WS02006110        0.58      0.58      1.80      0.73         0.01
  WS02006110WS02006113        0.01      0.01      1.79      0.01         0.01
  WS02006111WS02006112        0.01      0.01      1.93      0.01         0.01
  WS02006112WS02006115        0.01      0.01      0.79      0.01         0.01
  WS02006228WS02006109        1.77      1.80      1.77      2.11         1.76
  WS02006229WS02006228        1.76      1.77      1.76      1.88         1.76
  WS02006230WS02006229        1.82      1.85      1.82      3.63         1.82
  WS02006231WS02006230        0.59      0.59      0.81      3.44         0.01
  WS02006232WS02006231        0.75      0.75      1.79      0.82         0.01
  WS02006234WS02006232        1.72      1.72      1.79      0.80         0.79
  WS02006235WS02006234        1.03      1.04      1.72      3.32         0.02
  WS02006238WS02006235        1.74      1.74      1.80      0.01         0.01
  WS02006239WS02006238        1.77      1.79      1.78      1.80         1.60
  WS02006240WS02006239        1.75      1.78      1.75      1.80         1.52
  WS02006242WS02006240        1.76      1.76      1.80      1.92         0.01
  WS02006243WS02006242        1.77      1.77      1.79      0.01         0.05
  WS02006245WS02006243        1.76      1.76      1.76      1.18         1.18
  WS02006247WS02006245        1.76      1.76      1.76      3.12         1.74
  WS02006248WS02006247        1.75      1.75      1.76      0.01         0.05
  WS02006249WS02006248        1.75      1.75      1.75      3.07         0.01
  WS02006251WS02006249        1.75      1.75      1.75      1.86         1.68
  WS02006252WS02006251        1.89      1.89      1.90      1.89         0.01
  WS02006256WS02006235        3.31      3.37      4.59      1.08         0.01
  YS02001580YS02001583        0.55      0.55      0.59      0.01         0.01
  YS02001583YS02001586        0.55      0.55      0.67      0.01         0.01
  YS02001586YS02001590        0.68      0.68      0.74      0.01         0.01
  YS02001590YS02001593        0.75      0.75      0.76      0.79         0.01
  YS02001593YS02001596        0.76      0.76      0.85      0.01         0.01
  YS02001596YS02001600        0.89      0.89      0.98      0.01         0.01
  YS02001600YS02001601        1.04      1.04      1.33      0.01         0.01
  YS02001601YS02001602        1.22      1.22      1.37      0.98         0.01
  YS02001602YS02001605        1.16      1.16      1.22      2.15         0.01
  YS02001605YS02001607        1.12      1.16      1.12      1.30         1.12
  YS02001607YS02001610        0.73      0.73      0.76      0.01         0.01
  YS02001610YS02001613        0.73      0.73      0.76      0.01         0.01
  YS02001613YS02001616        0.69      0.69      0.73      0.01         0.01
  YS02001616YS02001619        0.67      0.67      0.69      0.01         0.02
  YS02001619YS02001622        0.67      0.67      0.67      0.74         0.63
  YS02001622YS02001625        0.67      0.67      0.84      0.01         0.01
  YS02001625YS02001629        0.63      0.63      0.84      0.01         0.01
  YS02001629YS02163301        0.84      0.84      0.85      0.04         0.12
  YS02001633YS02163601        0.87      0.87      0.89      0.29         0.28
  YS02001641YS02001644        0.79      0.82      0.79      1.40         0.78
  YS02001644YS02001647        0.61      0.61      0.79      0.03         0.01
  YS02001647YS02001649        0.61      0.61      0.73      0.01         0.01
  YS02001649YS02001757        0.73      0.73      0.80      0.05         0.03
  YS02001652YS02001649        0.56      0.56      0.73      0.01         0.01
  YS02001655YS02001652        0.38      0.38      0.54      0.01         0.01
  YS02001658YS02001655        0.20      0.20      0.38      0.01         0.01
  YS02001661YS02001658        0.02      0.02      0.20      0.01         0.01
  YS02001664YS02001661        0.01      0.01      0.08      0.01         0.01
  YS02001745YS02001748        0.01      0.01      0.16      0.01         0.01
  YS02001748YS02001751        0.19      0.19      0.28      0.01         0.01
  YS02001751YS02001754        0.28      0.28      0.45      0.01         0.01
  YS02001754YS02001757        0.50      0.50      0.80      0.01         0.01
  YS02001757CaochengTiaoxuchi        0.80      0.80      1.74      0.32         0.30
  YS02001759YS02001757        0.70      0.70      0.80      0.01         0.02
  YS02001762YS02001759        0.67      0.67      0.70      0.01         0.02
  YS02001765YS02001762        0.62      0.62      0.67      0.01         0.01
  YS02001767YS02001765        0.59      0.59      0.62      0.01         0.02
  YS02001770YS02001767        0.59      0.59      0.59      0.48         0.38
  YS02001774YS02001770        0.57      0.57      0.65      0.01         0.01
  YS02001779YS02001774        0.44      0.44      0.65      0.01         0.01
  YS02001783YS02001784        0.47      0.49      0.47      0.62         0.47
  YS02001784YS02001785        0.37      0.47      0.37      0.83         0.37
  YS02001786YS02001788        0.01      0.37      0.01      0.71         0.01
  YS02001790YS02001791        0.01      0.01      0.01      0.46         0.01
  YS02001793JiankangQianchi        0.01      0.01      7.70      0.01         0.01
  YS02001882YS02001884        0.44      0.44      0.45      0.01         0.01
  YS02001884YS02001887        0.47      0.47      0.48      0.01         0.01
  YS02001887YS02001890        0.50      0.50      0.51      0.11         0.01
  YS02001890YS02001895        0.43      0.43      0.52      0.01         0.01
  YS02001895YS02001898        0.43      0.43      0.43      0.01         0.01
  YS02001898YS02001901        0.43      0.43      0.47      0.01         0.01
  YS02001901YS02001904        0.46      0.46      0.47      0.01         0.01
  YS02001904YS02001907        0.46      0.46      0.70      0.01         0.01
  YS02001907YS02006553        0.83      0.83      0.89      0.01         0.01
  YS02001910YS02001907        0.52      0.52      0.68      0.01         0.01
  YS02001915YS02001910        0.44      0.44      0.52      0.01         0.01
  YS02001918YS02001915        0.36      0.36      0.44      0.01         0.01
  YS02001920YS02001918        0.36      0.36      0.37      0.01         0.01
  YS02001923YS02001920        0.32      0.32      0.37      0.01         0.01
  YS02001926YS02001923        0.08      0.08      0.11      0.01         0.01
  YS02001929YS02001926        0.01      0.01      0.11      0.01         0.01
  YS02006553YS02006556        0.60      0.60      0.70      0.01         0.01
  YS02006556YS02006558        0.64      0.64      0.71      0.01         0.01
  YS02006558YS02006561        0.40      0.59      0.40      0.78         0.40
  YS02006561YS02001783        0.33      0.33      0.49      0.01         0.01
  YS02163301YS02001633        0.85      0.85      0.88      0.01         0.01
  YS02163601YS02164001        0.82      0.82      0.89      0.05         0.01
  YS02164001YS02001641        0.82      0.82      0.82      0.63         0.58
  
  
  ***************
  Pumping Summary
  ***************
  
  ---------------------------------------------------------------------------------------------------------
                                                  Min       Avg       Max     Total     Power    % Time Off
                        Percent   Number of      Flow      Flow      Flow    Volume     Usage    Pump Curve
  Pump                 Utilized   Start-Ups       LPS       LPS       LPS  10^6 ltr     Kw-hr    Low   High
  ---------------------------------------------------------------------------------------------------------
  CC-R1                   15.53           2      0.00    683.00    683.00     3.055     57.83    0.0    6.7
  CC-R2                   14.59           2      0.00    683.00    683.00     2.871     54.43    0.0    7.1
  CC-S1                   40.03           5      0.00    200.00    200.00     2.306     13.26    0.0    0.0
  CC-S2                   23.68           2      0.00    200.00    200.00     1.364      7.59    0.0    0.0
  JK-R1                    7.40          11      0.00   1000.00   1000.00     2.132     24.70    0.0    0.0
  JK-R2                    1.25           5      0.00   1000.00   1000.00     0.359      2.81    0.0    0.0
  JK-S                    13.41          18      0.00    300.00    300.00     1.159     16.81    0.0    0.0
  

  Analysis begun on:  Mon Feb 24 09:55:32 2025
  Analysis ended on:  Mon Feb 24 09:55:34 2025
  Total elapsed time: 00:00:02