
  EPA STORM WATER MANAGEMENT MODEL - VERSION 5.2 (Build 5.2.4)
  PYSWMM TOOLKIT API - VERSION v1.0 (2023-11-27)
  ------------------------------------------------------------

  WARNING 04: minimum elevation drop used for Conduit WS02004404WS02004405
  WARNING 03: negative offset ignored for Link YS02001904YS02001907
  
  ****************
  Analysis Options
  ****************
  Flow Units ............... LPS
  Process Models:
    Rainfall/Runoff ........ YES
    RDII ................... NO
    Snowmelt ............... NO
    Groundwater ............ NO
    Flow Routing ........... YES
    Ponding Allowed ........ NO
    Water Quality .......... NO
  Infiltration Method ...... HORTON
  Flow Routing Method ...... DYNWAVE
  Surcharge Method ......... EXTRAN
  Starting Date ............ 08/28/2015 08:00:00
  Ending Date .............. 08/28/2015 16:00:00
  Antecedent Dry Days ...... 8.0
  Report Time Step ......... 00:01:00
  Wet Time Step ............ 00:01:00
  Dry Time Step ............ 00:01:00
  Routing Time Step ........ 30.00 sec
  Variable Time Step ....... YES
  Maximum Trials ........... 8
  Number of Threads ........ 4
  Head Tolerance ........... 0.001500 m
  
  
  **************************        Volume         Depth
  Runoff Quantity Continuity     hectare-m            mm
  **************************     ---------       -------
  Total Precipitation ......         3.098        93.389
  Evaporation Loss .........         0.000         0.000
  Infiltration Loss ........         0.104         3.121
  Surface Runoff ...........         2.962        89.291
  Final Storage ............         0.033         0.996
  Continuity Error (%) .....        -0.021
  
  
  **************************        Volume        Volume
  Flow Routing Continuity        hectare-m      10^6 ltr
  **************************     ---------     ---------
  Dry Weather Inflow .......         0.025         0.251
  Wet Weather Inflow .......         2.962        29.616
  Groundwater Inflow .......         0.000         0.000
  RDII Inflow ..............         0.000         0.000
  External Inflow ..........         0.083         0.834
  External Outflow .........         1.732        17.324
  Flooding Loss ............         1.307        13.073
  Evaporation Loss .........         0.000         0.000
  Exfiltration Loss ........         0.000         0.000
  Initial Stored Volume ....         0.243         2.431
  Final Stored Volume ......         0.276         2.763
  Continuity Error (%) .....        -0.085
  
  
  *************************
  Highest Continuity Errors
  *************************
  Node YS02001583 (-6.46%)
  Node YS02001884 (4.71%)
  
  
  ***************************
  Time-Step Critical Elements
  ***************************
  Link WS02006252WS02006251 (47.55%)
  Link YS02001791YS02001793 (10.60%)
  Link WS02006238WS02006235 (10.03%)
  Link WS02004404WS02004405 (9.81%)
  Link WS02006235WS02006234 (9.20%)
  
  
  ********************************
  Highest Flow Instability Indexes
  ********************************
  Link WS02006113WS02006111 (46)
  Link WS02006111WS02006112 (27)
  Link WS02006238WS02006235 (17)
  Link WS02006252WS02006251 (16)
  Link YS02001607YS02001610 (12)
  
  
  *********************************
  Most Frequent Nonconverging Nodes
  *********************************
  Node CC-1 (9.18%)
  Node CC-2 (9.18%)
  Node JK-1 (9.18%)
  Node JK-2 (9.18%)
  Node WSC (9.18%)
  
  
  *************************
  Routing Time Step Summary
  *************************
  Minimum Time Step           :     0.00 sec
  Average Time Step           :     1.97 sec
  Maximum Time Step           :     7.04 sec
  % of Time in Steady State   :     0.00
  Average Iterations per Step :     2.93
  % of Steps Not Converging   :     9.18
  Time Step Frequencies       :
     30.000 - 13.228 sec      :     0.00 %
     13.228 -  5.833 sec      :     7.48 %
      5.833 -  2.572 sec      :    21.74 %
      2.572 -  1.134 sec      :    18.14 %
      1.134 -  0.500 sec      :    52.64 %
  
  
  ***************************
  Subcatchment Runoff Summary
  ***************************
  
  ------------------------------------------------------------------------------------------------------------------------------
                            Total      Total      Total      Total     Imperv       Perv      Total       Total     Peak  Runoff
                           Precip      Runon       Evap      Infil     Runoff     Runoff     Runoff      Runoff   Runoff   Coeff
  Subcatchment                 mm         mm         mm         mm         mm         mm         mm    10^6 ltr      LPS
  ------------------------------------------------------------------------------------------------------------------------------
  sub60                     93.39       0.00       0.00       1.87      80.99       9.34      90.33        1.19   786.48   0.967
  sub61                     93.39       0.00       0.00       2.71      76.39      13.17      89.56        1.64  1093.18   0.959
  sub62                     93.39       0.00       0.00       1.24      84.64       6.23      90.87        2.49  1558.87   0.973
  sub63                     93.39       0.00       0.00       5.00      65.34      22.09      87.43        1.98  1256.16   0.936
  sub64                     93.39       0.00       0.00       2.53      78.18      11.48      89.66        2.15  1287.55   0.960
  sub65                     93.39       0.00       0.00       2.19      80.00       9.96      89.96        2.48  1440.62   0.963
  sub66                     93.39       0.00       0.00       6.21      65.23      20.88      86.11        4.02  1953.11   0.922
  sub67                     93.39       0.00       0.00       1.20      84.68       6.28      90.96        1.69  1178.24   0.974
  sub68                     93.39       0.00       0.00       2.24      79.13      10.83      89.97        2.48  1594.35   0.963
  sub69                     93.39       0.00       0.00       2.02      79.27      11.99      91.27        3.38  1913.98   0.977
  sub70                     93.39       0.00       0.00       6.77      61.47      24.99      86.46        2.50  1098.44   0.926
  sub71                     93.39       0.00       0.00       1.28      84.59       6.20      90.79        2.37  1388.88   0.972
  sub72                     93.39       0.00       0.00       1.14      85.45       5.40      90.85        1.25   680.86   0.973
  
  
  ******************
  Node Depth Summary
  ******************
  
  ---------------------------------------------------------------------------------
                                 Average  Maximum  Maximum  Time of Max    Reported
                                   Depth    Depth      HGL   Occurrence   Max Depth
  Node                 Type       Meters   Meters   Meters  days hr:min      Meters
  ---------------------------------------------------------------------------------
  WS02003060           JUNCTION     0.24     0.38     5.32     0  02:26        0.38
  WS02003066           JUNCTION     0.20     0.30     5.85     0  02:25        0.30
  WS02003067           JUNCTION     0.51     0.70     6.02     0  02:25        0.70
  WS02003069           JUNCTION     0.27     0.43     5.01     0  02:26        0.43
  WS02003072           JUNCTION     0.33     0.50     4.87     0  02:37        0.50
  WS02003073           JUNCTION     0.19     0.30     4.36     0  02:38        0.30
  WS02004401           JUNCTION     0.59     0.85     6.85     0  02:22        0.85
  WS02004402           JUNCTION     0.62     0.88     6.84     0  02:23        0.88
  WS02004403           JUNCTION     0.65     0.89     6.82     0  02:23        0.89
  WS02004404           JUNCTION     0.72     0.96     6.81     0  02:23        0.96
  WS02004405           JUNCTION     0.72     0.96     6.81     0  02:23        0.96
  WS02004406           JUNCTION     0.73     0.96     6.79     0  02:23        0.96
  WS02004407           JUNCTION     0.18     0.30     6.61     0  02:23        0.30
  WS02004409           JUNCTION     0.40     0.67     6.44     0  02:24        0.67
  WS02004410           JUNCTION     0.42     0.68     6.40     0  02:24        0.68
  WS02004411           JUNCTION     0.44     0.69     6.37     0  02:24        0.69
  WS02004412           JUNCTION     0.46     0.70     6.34     0  02:41        0.70
  WS02004413           JUNCTION     0.62     0.86     6.33     0  02:25        0.86
  WS02006109           JUNCTION     0.65     1.21     7.83     0  02:43        0.99
  WS02006110           JUNCTION     0.65     1.40     7.99     0  02:43        0.94
  WS02006111           JUNCTION     0.18     0.29     6.99     0  03:18        0.29
  WS02006112           JUNCTION     0.75     1.09     6.97     0  02:43        1.07
  WS02006113           JUNCTION     0.27     0.46     7.35     0  03:17        0.46
  WS02006115           JUNCTION     0.47     0.75     6.89     0  02:22        0.75
  WS02006116           JUNCTION     0.56     0.83     6.87     0  02:22        0.83
  WS02006228           JUNCTION     0.64     1.25     7.90     0  02:11        1.03
  WS02006229           JUNCTION     0.62     1.30     7.99     0  02:11        1.04
  WS02006230           JUNCTION     0.62     1.53     8.28     0  02:11        1.28
  WS02006231           JUNCTION     0.42     1.95     9.07     0  02:59        1.95
  WS02006232           JUNCTION     0.56     2.18     9.22     0  02:59        2.18
  WS02006234           JUNCTION     0.49     1.77     8.93     0  02:59        1.77
  WS02006235           JUNCTION     0.52     1.59     8.75     0  02:43        1.59
  WS02006238           JUNCTION     0.55     1.65     8.79     0  02:43        1.65
  WS02006239           JUNCTION     0.52     1.68     8.89     0  02:43        1.68
  WS02006240           JUNCTION     0.49     1.63     8.93     0  02:43        1.63
  WS02006242           JUNCTION     0.56     1.55     8.82     0  02:43        1.55
  WS02006243           JUNCTION     0.47     1.43     8.85     0  02:43        1.43
  WS02006245           JUNCTION     0.47     1.33     8.81     0  02:43        1.33
  WS02006247           JUNCTION     0.49     1.26     8.76     0  02:43        1.26
  WS02006248           JUNCTION     0.46     1.10     8.69     0  01:50        1.10
  WS02006249           JUNCTION     0.49     1.09     8.69     0  01:49        1.09
  WS02006251           JUNCTION     0.49     1.37     9.04     0  01:49        1.19
  WS02006252           JUNCTION     0.36     1.50     9.74     0  00:00        0.82
  WS02006256           JUNCTION     1.03     2.35     9.28     0  00:00        2.35
  WSF200               JUNCTION     0.17     0.29     5.52     0  02:25        0.29
  YS02001580           JUNCTION     0.11     1.05     9.59     0  01:48        0.78
  YS02001583           JUNCTION     0.14     1.14     9.64     0  01:48        0.84
  YS02001586           JUNCTION     0.22     1.13     9.30     0  01:48        1.13
  YS02001590           JUNCTION     0.32     1.40     9.26     0  01:48        1.40
  YS02001593           JUNCTION     0.26     1.34     9.20     0  01:48        1.29
  YS02001596           JUNCTION     0.35     1.76     9.18     0  01:53        1.76
  YS02001600           JUNCTION     0.42     1.87     9.00     0  01:48        1.87
  YS02001601           JUNCTION     0.61     2.06     8.90     0  01:46        2.06
  YS02001602           JUNCTION     0.52     1.87     8.77     0  01:46        1.87
  YS02001605           JUNCTION     0.48     1.78     8.68     0  01:46        1.78
  YS02001607           JUNCTION     0.47     1.68     8.53     0  01:47        1.67
  YS02001610           JUNCTION     0.52     1.68     8.48     0  01:47        1.68
  YS02001613           JUNCTION     0.48     1.70     8.54     0  01:47        1.69
  YS02001616           JUNCTION     0.41     1.61     8.52     0  01:47        1.61
  YS02001619           JUNCTION     0.38     1.61     8.54     0  01:47        1.61
  YS02001622           JUNCTION     0.37     1.58     8.49     0  02:42        1.58
  YS02001625           JUNCTION     0.64     1.78     8.38     0  01:51        1.78
  YS02001629           JUNCTION     0.50     1.85     8.40     0  01:51        1.85
  YS02001633           JUNCTION     0.58     2.08     8.53     0  01:53        2.08
  YS02001641           JUNCTION     0.57     2.10     8.54     0  01:53        2.10
  YS02001644           JUNCTION     0.56     1.92     8.35     0  01:53        1.92
  YS02001647           JUNCTION     0.36     1.90     8.51     0  01:53        1.90
  YS02001649           JUNCTION     0.41     2.05     8.44     0  01:53        2.05
  YS02001652           JUNCTION     0.30     1.89     8.49     0  01:58        1.88
  YS02001655           JUNCTION     0.24     1.72     8.57     0  02:01        1.70
  YS02001658           JUNCTION     0.18     1.56     8.70     0  01:53        1.51
  YS02001661           JUNCTION     0.19     1.33     8.73     0  02:01        1.32
  YS02001664           JUNCTION     0.07     0.85     8.78     0  02:01        0.84
  YS02001745           JUNCTION     0.10     0.99     8.51     0  02:01        0.98
  YS02001748           JUNCTION     0.17     1.39     8.47     0  02:01        1.39
  YS02001751           JUNCTION     0.21     1.55     8.43     0  02:01        1.55
  YS02001754           JUNCTION     0.27     1.82     8.42     0  01:58        1.79
  YS02001757           JUNCTION     0.45     2.15     8.41     0  01:58        2.10
  YS02001759           JUNCTION     0.38     2.21     8.57     0  01:53        2.21
  YS02001762           JUNCTION     0.37     2.15     8.55     0  01:53        2.15
  YS02001765           JUNCTION     0.35     2.10     8.55     0  01:53        2.10
  YS02001767           JUNCTION     0.34     2.03     8.52     0  01:53        2.03
  YS02001770           JUNCTION     0.35     1.95     8.44     0  01:52        1.95
  YS02001774           JUNCTION     0.42     2.04     8.46     0  01:52        2.00
  YS02001779           JUNCTION     0.26     1.68     8.37     0  01:51        1.68
  YS02001783           JUNCTION     0.26     1.26     7.41     0  01:52        1.24
  YS02001784           JUNCTION     0.27     1.14     7.21     0  01:52        1.13
  YS02001786           JUNCTION     0.22     0.89     6.92     0  01:52        0.88
  YS02001788           JUNCTION     0.16     0.63     6.60     0  01:58        0.62
  YS02001790           JUNCTION     0.19     0.73     6.38     0  01:58        0.72
  YS02001791           JUNCTION     0.12     0.44     5.91     0  02:03        0.44
  YS02001793           JUNCTION     0.06     0.30     5.13     0  02:05        0.29
  YS02001882           JUNCTION     0.33     1.72     8.44     0  01:53        1.72
  YS02001884           JUNCTION     0.42     1.81     8.42     0  01:53        1.81
  YS02001887           JUNCTION     0.50     1.97     8.50     0  01:53        1.97
  YS02001890           JUNCTION     0.53     1.81     8.32     0  01:52        1.81
  YS02001895           JUNCTION     0.30     1.59     8.34     0  01:53        1.59
  YS02001898           JUNCTION     0.30     1.60     8.33     0  01:52        1.57
  YS02001901           JUNCTION     0.42     1.71     8.32     0  01:52        1.67
  YS02001904           JUNCTION     0.40     1.66     8.29     0  01:52        1.64
  YS02001907           JUNCTION     0.73     1.96     8.25     0  01:52        1.96
  YS02001910           JUNCTION     0.53     2.10     8.61     0  01:53        2.10
  YS02001915           JUNCTION     0.34     2.00     8.72     0  01:53        2.00
  YS02001918           JUNCTION     0.19     1.81     8.88     0  01:53        1.81
  YS02001920           JUNCTION     0.27     2.14     9.15     0  01:53        2.14
  YS02001923           JUNCTION     0.15     2.03     9.29     0  01:53        2.03
  YS02001926           JUNCTION     0.18     1.90     9.35     0  01:53        1.40
  YS02001929           JUNCTION     0.11     1.78     9.47     0  01:53        1.19
  YS02006553           JUNCTION     0.73     1.98     8.27     0  02:00        1.98
  YS02006556           JUNCTION     0.70     2.02     8.33     0  01:58        2.02
  YS02006558           JUNCTION     0.74     2.09     8.35     0  01:58        2.09
  YS02006561           JUNCTION     0.16     0.94     7.60     0  01:52        0.91
  YS02163301           JUNCTION     0.53     2.03     8.55     0  01:53        2.03
  YS02163601           JUNCTION     0.62     2.08     8.48     0  01:53        2.08
  YS02164001           JUNCTION     0.55     2.10     8.56     0  01:53        2.10
  CC-1                 OUTFALL      0.00     0.00     0.00     0  00:00        0.00
  CC-2                 OUTFALL      0.00     0.00     0.00     0  00:00        0.00
  JK-1                 OUTFALL      0.00     0.00     0.00     0  00:00        0.00
  JK-2                 OUTFALL      0.00     0.00     0.00     0  00:00        0.00
  WSC                  OUTFALL      0.19     0.30     0.97     0  02:38        0.30
  CC-storage           STORAGE      1.04     1.94     7.44     0  02:33        1.94
  JK-storage           STORAGE      3.07     4.23     5.03     0  02:29        4.21
  
  
  *******************
  Node Inflow Summary
  *******************
  
  -------------------------------------------------------------------------------------------------
                                  Maximum  Maximum                  Lateral       Total        Flow
                                  Lateral    Total  Time of Max      Inflow      Inflow     Balance
                                   Inflow   Inflow   Occurrence      Volume      Volume       Error
  Node                 Type           LPS      LPS  days hr:min    10^6 ltr    10^6 ltr     Percent
  -------------------------------------------------------------------------------------------------
  WS02003060           JUNCTION     16.53   553.31     0  02:25       0.476        5.82       0.041
  WS02003066           JUNCTION      0.00   536.60     0  02:25           0        5.34       0.027
  WS02003067           JUNCTION      0.00   536.55     0  02:25           0        5.35       0.080
  WS02003069           JUNCTION      0.32   553.51     0  02:26     0.00922        5.82       0.073
  WS02003072           JUNCTION      0.00   553.29     0  02:26           0        5.82       0.129
  WS02003073           JUNCTION      1.82   555.07     0  02:37      0.0524        5.86       0.106
  WS02004401           JUNCTION      0.00   538.42     0  02:22           0        5.45       0.187
  WS02004402           JUNCTION      0.00   537.97     0  02:22           0        5.44       0.190
  WS02004403           JUNCTION      0.00   537.84     0  02:23           0        5.43       0.186
  WS02004404           JUNCTION      0.16   537.61     0  02:23     0.00467        5.42       0.155
  WS02004405           JUNCTION      0.04   537.56     0  02:23      0.0011        5.42       0.231
  WS02004406           JUNCTION      0.00   537.77     0  02:23           0         5.4       0.384
  WS02004407           JUNCTION      0.00   537.36     0  02:23           0        5.38       0.022
  WS02004409           JUNCTION      0.00   537.17     0  02:23           0        5.38       0.052
  WS02004410           JUNCTION      0.00   536.98     0  02:24           0        5.38       0.084
  WS02004411           JUNCTION      0.00   536.80     0  02:24           0        5.37       0.107
  WS02004412           JUNCTION      0.00   536.77     0  02:24           0        5.37       0.143
  WS02004413           JUNCTION      0.00   536.67     0  02:24           0        5.36       0.251
  WS02006109           JUNCTION      1.23   560.77     0  02:43      0.0354         5.5       0.161
  WS02006110           JUNCTION      0.00   560.94     0  03:16           0        5.49       0.117
  WS02006111           JUNCTION      0.00   561.01     0  02:54           0        5.48       0.013
  WS02006112           JUNCTION      0.00   543.45     0  03:18           0        5.48       0.325
  WS02006113           JUNCTION      0.00   577.53     0  02:43           0        5.48       0.031
  WS02006115           JUNCTION      0.00   553.64     0  03:00           0        5.46       0.120
  WS02006116           JUNCTION      0.00   539.85     0  03:00           0        5.45       0.090
  WS02006228           JUNCTION      0.00   559.73     0  02:43           0        5.46       0.058
  WS02006229           JUNCTION      0.00   560.53     0  02:43           0        5.47       0.099
  WS02006230           JUNCTION     10.28   603.96     0  02:59       0.296        5.47       0.081
  WS02006231           JUNCTION      0.00   589.78     0  02:52           0        5.17      -0.081
  WS02006232           JUNCTION      0.00   588.15     0  02:52           0        5.18       0.229
  WS02006234           JUNCTION      0.00   580.09     0  02:52           0        5.17      -0.187
  WS02006235           JUNCTION      0.00   565.77     0  02:52           0        5.23       0.195
  WS02006238           JUNCTION      0.00   425.23     0  02:55           0        4.21      -0.101
  WS02006239           JUNCTION      0.00   423.47     0  02:55           0        4.18      -0.064
  WS02006240           JUNCTION      0.00   419.72     0  01:55           0        4.15      -0.034
  WS02006242           JUNCTION      0.00   419.69     0  01:55           0        4.13      -0.056
  WS02006243           JUNCTION      0.00   419.42     0  02:55           0        4.12       0.097
  WS02006245           JUNCTION      0.00   419.92     0  02:55           0        4.13       0.253
  WS02006247           JUNCTION      0.00   420.80     0  02:55           0        4.13       0.021
  WS02006248           JUNCTION      0.00   420.92     0  02:55           0        4.14       0.070
  WS02006249           JUNCTION      0.00   459.02     0  00:00           0        4.41       0.237
  WS02006251           JUNCTION      0.08   407.20     0  01:49     0.00222        4.41      -0.021
  WS02006252           JUNCTION      0.00   400.00     0  00:00           0        4.41      -0.028
  WS02006256           JUNCTION      0.00   300.00     0  00:00           0        1.54      -0.479
  WSF200               JUNCTION      0.00   536.63     0  02:25           0        5.34       0.009
  YS02001580           JUNCTION      0.00    79.01     0  01:48           0       0.004      -1.493
  YS02001583           JUNCTION      0.00   136.88     0  01:47           0      0.0151      -6.071
  YS02001586           JUNCTION   1098.44  1098.44     0  02:04         2.5        2.51       0.043
  YS02001590           JUNCTION      0.00   318.43     0  02:21           0        1.64      -0.016
  YS02001593           JUNCTION      0.00   318.41     0  02:21           0        1.64       0.001
  YS02001596           JUNCTION      0.00   318.07     0  02:21           0        1.64      -0.010
  YS02001600           JUNCTION      0.00   318.52     0  01:53           0        1.64       0.003
  YS02001601           JUNCTION   1913.98  2231.50     0  02:02        3.38        5.01       0.016
  YS02001602           JUNCTION      0.00   506.42     0  01:47           0        2.63       0.016
  YS02001605           JUNCTION      0.00   506.84     0  01:47           0        2.44       0.019
  YS02001607           JUNCTION      0.00   507.17     0  01:47           0        2.44       0.081
  YS02001610           JUNCTION      0.00   953.60     0  02:05           0        3.05       0.079
  YS02001613           JUNCTION      0.00   616.92     0  02:05           0        2.33       0.069
  YS02001616           JUNCTION      0.00   617.78     0  02:05           0        2.33       0.025
  YS02001619           JUNCTION   1953.11  1953.11     0  02:03        4.02        5.73       0.002
  YS02001622           JUNCTION      0.00  1053.93     0  02:08           0        5.03       0.002
  YS02001625           JUNCTION      0.00  1505.30     0  02:07           0         5.5       0.187
  YS02001629           JUNCTION      0.00   910.58     0  01:50           0        3.81      -0.000
  YS02001633           JUNCTION   1440.82  1440.82     0  02:02        2.48         5.7       0.059
  YS02001641           JUNCTION      0.00  1309.34     0  01:50           0         5.1       0.050
  YS02001644           JUNCTION   1287.59  2340.45     0  02:02        2.15        7.34       0.042
  YS02001647           JUNCTION      0.00  1673.71     0  01:51           0        5.93       0.004
  YS02001649           JUNCTION      0.00  1848.42     0  01:50           0        7.84       0.001
  YS02001652           JUNCTION      0.00  1266.74     0  02:01           0        1.99      -0.072
  YS02001655           JUNCTION      0.15  1266.48     0  02:01     0.00443        1.99       0.009
  YS02001658           JUNCTION      0.00  1266.43     0  02:01           0        1.98      -0.053
  YS02001661           JUNCTION      0.00  1265.75     0  02:01           0        1.98      -0.002
  YS02001664           JUNCTION   1256.16  1256.16     0  02:02        1.98        1.98      -0.004
  YS02001745           JUNCTION    786.49   786.49     0  02:02        1.19        1.19       0.120
  YS02001748           JUNCTION      0.04   801.28     0  02:01      0.0013        1.19      -0.198
  YS02001751           JUNCTION      0.01   801.57     0  02:01    0.000317         1.2       0.064
  YS02001754           JUNCTION      0.26   801.72     0  02:01     0.00749        1.21      -0.135
  YS02001757           JUNCTION      0.00  3103.83     0  02:00           0        12.4       0.006
  YS02001759           JUNCTION   1093.22  1359.49     0  02:01        1.64        3.45      -0.021
  YS02001762           JUNCTION      0.00   696.00     0  01:55           0         1.8      -0.023
  YS02001765           JUNCTION      0.00   696.36     0  01:55           0         1.8      -0.019
  YS02001767           JUNCTION      0.54   697.10     0  01:55      0.0154         1.8      -0.001
  YS02001770           JUNCTION   1559.02  1559.02     0  02:02        2.49        2.54      -0.022
  YS02001774           JUNCTION      0.00   851.19     0  02:05           0        0.67       0.094
  YS02001779           JUNCTION      0.01   851.25     0  02:05    0.000144       0.622      -0.216
  YS02001783           JUNCTION      0.00  1173.25     0  02:01           0        4.97       0.002
  YS02001784           JUNCTION      1.06  1174.34     0  02:01      0.0305           5       0.009
  YS02001786           JUNCTION      0.06  1174.60     0  02:01     0.00162           5       0.014
  YS02001788           JUNCTION      0.07  1175.41     0  02:01     0.00204           5       0.006
  YS02001790           JUNCTION      0.15  1183.71     0  02:01     0.00446        5.01       0.021
  YS02001791           JUNCTION      0.00  1303.20     0  01:58           0        5.01      -0.028
  YS02001793           JUNCTION      0.00  1260.69     0  01:59           0        5.01       0.005
  YS02001882           JUNCTION      0.00    34.20     0  01:49           0      0.0129       3.398
  YS02001884           JUNCTION      0.00    60.87     0  01:49           0      0.0491       4.940
  YS02001887           JUNCTION   1178.69  1180.53     0  02:01         1.7        1.74       0.238
  YS02001890           JUNCTION      0.00  1181.23     0  02:01           0         1.7       0.292
  YS02001895           JUNCTION      0.00   517.96     0  02:01           0         1.4       0.120
  YS02001898           JUNCTION      0.00   517.70     0  02:02           0         1.4      -0.008
  YS02001901           JUNCTION      0.00   518.01     0  02:01           0         1.4       0.228
  YS02001904           JUNCTION      0.00   517.83     0  02:09           0         1.4       0.180
  YS02001907           JUNCTION      0.00  2938.33     0  02:02           0        5.22       0.345
  YS02001910           JUNCTION      0.00  1992.70     0  02:02           0         3.7       0.189
  YS02001915           JUNCTION   1388.90  2069.28     0  02:02        2.37        3.74       0.032
  YS02001918           JUNCTION      0.00   684.24     0  02:02           0        1.39      -0.017
  YS02001920           JUNCTION      2.87   683.85     0  02:02      0.0827        1.37       0.068
  YS02001923           JUNCTION      0.04   680.50     0  02:03     0.00109        1.28      -0.025
  YS02001926           JUNCTION      0.05   680.68     0  02:03      0.0015        1.26      -0.028
  YS02001929           JUNCTION    680.86   680.86     0  02:03        1.25        1.25      -0.042
  YS02006553           JUNCTION      0.00   797.27     0  02:24           0        2.76       0.428
  YS02006556           JUNCTION      0.00   797.00     0  02:24           0        2.77       0.284
  YS02006558           JUNCTION   1595.23  1595.23     0  02:02         2.5        5.13       0.063
  YS02006561           JUNCTION      0.00  1173.52     0  02:01           0        4.97      -0.002
  YS02163301           JUNCTION      0.00   910.07     0  01:50           0        3.81       0.042
  YS02163601           JUNCTION      0.11  1312.47     0  01:50     0.00317         5.1       0.096
  YS02164001           JUNCTION      0.00  1311.47     0  01:50           0         5.1       0.035
  CC-1                 OUTFALL       0.00   683.00     0  00:00           0        4.43       0.000
  CC-2                 OUTFALL       0.00   683.00     0  00:00           0        3.61       0.000
  JK-1                 OUTFALL       0.00  1000.00     0  00:00           0        2.46       0.000
  JK-2                 OUTFALL       0.00  1000.00     0  00:00           0       0.971       0.000
  WSC                  OUTFALL       0.00   555.05     0  02:38           0        5.86       0.000
  CC-storage           STORAGE       0.00  3104.14     0  01:59           0        14.6      -0.059
  JK-storage           STORAGE       0.00  1253.44     0  02:01           0        5.16       0.127
  
  
  **********************
  Node Surcharge Summary
  **********************
  
  Surcharging occurs when water rises above the top of the highest conduit.
  ---------------------------------------------------------------------
                                               Max. Height   Min. Depth
                                   Hours       Above Crown    Below Rim
  Node                 Type      Surcharged         Meters       Meters
  ---------------------------------------------------------------------
  WS02006109           JUNCTION        2.30          0.392        1.428
  WS02006110           JUNCTION        0.92          0.491        1.359
  WS02006112           JUNCTION        0.96          0.090        1.590
  WS02006228           JUNCTION        2.29          0.421        1.779
  WS02006229           JUNCTION        2.30          0.499        1.951
  WS02006230           JUNCTION        0.92          0.452        1.118
  WS02006231           JUNCTION        1.06          1.241        0.289
  WS02006232           JUNCTION        2.33          1.480        0.000
  WS02006234           JUNCTION        1.29          1.049        0.191
  WS02006235           JUNCTION        2.26          0.875        0.415
  WS02006238           JUNCTION        2.30          0.931        0.499
  WS02006239           JUNCTION        2.27          0.941        0.349
  WS02006240           JUNCTION        2.29          0.923        0.467
  WS02006242           JUNCTION        2.31          0.820        0.000
  WS02006243           JUNCTION        2.29          0.724        0.046
  WS02006245           JUNCTION        2.28          0.617        0.233
  WS02006247           JUNCTION        2.28          0.551        0.209
  WS02006248           JUNCTION        2.27          0.380        0.000
  WS02006249           JUNCTION        2.27          0.390        0.000
  WS02006251           JUNCTION        1.13          0.339        0.841
  WS02006252           JUNCTION        2.40          1.100        0.000
  WS02006256           JUNCTION        5.74          2.050        0.000
  YS02001580           JUNCTION        0.89          0.450        0.000
  YS02001583           JUNCTION        0.90          0.500        0.000
  YS02001586           JUNCTION        1.07          0.510        0.000
  YS02001590           JUNCTION        1.16          0.750        0.000
  YS02001593           JUNCTION        1.16          0.720        0.120
  YS02001596           JUNCTION        1.30          1.035        0.035
  YS02001600           JUNCTION        1.44          1.190        0.000
  YS02001601           JUNCTION        1.71          1.440        0.000
  YS02001602           JUNCTION        1.63          1.270        0.000
  YS02001605           JUNCTION        1.59          1.180        0.000
  YS02001607           JUNCTION        1.18          0.680        0.000
  YS02001610           JUNCTION        1.22          0.680        0.000
  YS02001613           JUNCTION        1.18          0.700        0.000
  YS02001616           JUNCTION        1.13          0.610        0.000
  YS02001619           JUNCTION        1.12          0.610        0.000
  YS02001622           JUNCTION        1.12          0.585        0.035
  YS02001625           JUNCTION        1.31          0.780        0.000
  YS02001629           JUNCTION        1.06          0.470        0.000
  YS02001633           JUNCTION        1.35          1.060        0.000
  YS02001641           JUNCTION        1.31          1.100        0.000
  YS02001644           JUNCTION        1.28          0.920        0.000
  YS02001647           JUNCTION        1.07          0.900        0.000
  YS02001649           JUNCTION        1.22          1.050        0.000
  YS02001652           JUNCTION        1.01          0.861        0.269
  YS02001655           JUNCTION        0.82          0.717        0.483
  YS02001658           JUNCTION        0.48          0.556        0.744
  YS02001661           JUNCTION        0.16          0.258        1.132
  YS02001748           JUNCTION        0.38          0.314        0.876
  YS02001751           JUNCTION        0.68          0.555        0.645
  YS02001754           JUNCTION        0.94          0.767        0.383
  YS02001757           JUNCTION        1.28          1.151        0.059
  YS02001759           JUNCTION        1.21          1.210        0.000
  YS02001762           JUNCTION        1.18          1.150        0.000
  YS02001765           JUNCTION        1.15          1.100        0.000
  YS02001767           JUNCTION        1.10          1.030        0.000
  YS02001770           JUNCTION        1.06          0.920        0.000
  YS02001774           JUNCTION        1.16          1.035        0.015
  YS02001779           JUNCTION        0.92          0.680        0.000
  YS02001783           JUNCTION        0.75          0.465        1.135
  YS02001784           JUNCTION        0.72          0.338        1.152
  YS02001786           JUNCTION        0.59          0.091        1.339
  YS02001882           JUNCTION        0.68          0.719        0.111
  YS02001884           JUNCTION        0.70          0.748        0.122
  YS02001887           JUNCTION        0.74          0.916        0.034
  YS02001890           JUNCTION        0.76          0.760        0.000
  YS02001895           JUNCTION        0.67          0.594        0.156
  YS02001898           JUNCTION        0.67          0.568        0.172
  YS02001901           JUNCTION        0.72          0.707        0.163
  YS02001904           JUNCTION        0.71          0.659        0.191
  YS02001907           JUNCTION        1.01          0.950        0.000
  YS02001910           JUNCTION        0.79          1.100        0.000
  YS02001915           JUNCTION        0.68          1.000        0.000
  YS02001918           JUNCTION        0.58          0.810        0.000
  YS02001920           JUNCTION        0.60          1.140        0.000
  YS02001923           JUNCTION        0.25          0.820        0.000
  YS02001926           JUNCTION        0.28          0.900        0.000
  YS02001929           JUNCTION        0.12          0.780        0.000
  YS02006553           JUNCTION        1.03          0.983        0.207
  YS02006556           JUNCTION        0.90          0.981        0.369
  YS02006558           JUNCTION        0.88          0.988        0.412
  YS02006561           JUNCTION        0.55          0.136        1.014
  YS02163301           JUNCTION        1.33          1.030        0.000
  YS02163601           JUNCTION        1.38          1.080        0.000
  YS02164001           JUNCTION        1.31          1.100        0.000
  
  
  *********************
  Node Flooding Summary
  *********************
  
  Flooding refers to all water that overflows a node, whether it ponds or not.
  --------------------------------------------------------------------------
                                                             Total   Maximum
                                 Maximum   Time of Max       Flood    Ponded
                        Hours       Rate    Occurrence      Volume     Depth
  Node                 Flooded       LPS   days hr:min    10^6 ltr    Meters
  --------------------------------------------------------------------------
  WS02006232              0.01     12.24      0  02:59       0.000     0.000
  WS02006242              0.01      1.37      0  02:43       0.000     0.000
  WS02006248              0.01     17.65      0  01:55       0.001     0.000
  WS02006249              1.10    100.40      0  01:49       0.267     0.000
  WS02006252              0.01    245.63      0  00:00       0.000     0.000
  WS02006256              1.42    293.19      0  00:00       0.486     0.000
  YS02001580              0.01     21.65      0  01:48       0.000     0.000
  YS02001583              0.01     60.65      0  01:48       0.000     0.000
  YS02001586              0.73    780.88      0  02:04       0.862     0.000
  YS02001590              0.01      9.30      0  01:48       0.000     0.000
  YS02001600              0.01      3.14      0  01:48       0.000     0.000
  YS02001601              0.98   1833.64      0  02:02       2.386     0.000
  YS02001602              0.89     62.13      0  01:58       0.183     0.000
  YS02001605              0.01      1.87      0  01:47       0.000     0.000
  YS02001607              0.01     14.13      0  01:47       0.000     0.000
  YS02001610              0.79    953.17      0  02:05       1.331     0.000
  YS02001613              0.01      4.80      0  01:47       0.000     0.000
  YS02001616              0.04     14.82      0  01:47       0.000     0.000
  YS02001619              0.15    289.74      0  02:03       0.092     0.000
  YS02001625              0.77   1505.07      0  02:08       2.277     0.000
  YS02001629              0.27    308.02      0  02:02       0.126     0.000
  YS02001633              0.01      1.60      0  01:53       0.000     0.000
  YS02001641              0.01      1.46      0  01:53       0.000     0.000
  YS02001644              0.39   2340.26      0  02:02       1.477     0.000
  YS02001647              0.01      2.38      0  01:53       0.000     0.000
  YS02001649              0.01      8.44      0  01:58       0.000     0.000
  YS02001759              0.01      1.69      0  01:53       0.000     0.000
  YS02001762              0.01      6.11      0  01:58       0.000     0.000
  YS02001765              0.01      4.82      0  01:58       0.000     0.000
  YS02001767              0.01      2.83      0  01:58       0.000     0.000
  YS02001770              0.11    460.18      0  02:02       0.105     0.000
  YS02001779              0.34    851.18      0  02:05       0.603     0.000
  YS02001890              0.30    663.22      0  02:01       0.295     0.000
  YS02001907              0.52   2937.79      0  02:02       2.570     0.000
  YS02001910              0.01      1.82      0  01:53       0.000     0.000
  YS02001915              0.06     77.38      0  02:02       0.010     0.000
  YS02001918              0.01     92.71      0  01:53       0.000     0.000
  YS02001920              0.01     46.29      0  01:53       0.000     0.000
  YS02001923              0.01    159.52      0  01:53       0.000     0.000
  YS02001926              0.01     15.32      0  01:53       0.000     0.000
  YS02001929              0.01    262.75      0  01:53       0.001     0.000
  YS02163301              0.01      0.70      0  01:53       0.000     0.000
  YS02163601              0.01      0.76      0  01:53       0.000     0.000
  YS02164001              0.01      2.53      0  01:53       0.000     0.000
  
  
  **********************
  Storage Volume Summary
  **********************
  
  ------------------------------------------------------------------------------------------------
                         Average    Avg   Evap  Exfil     Maximum    Max    Time of Max    Maximum
                          Volume   Pcnt   Pcnt   Pcnt      Volume   Pcnt     Occurrence    Outflow
  Storage Unit           1000 m³   Full   Loss   Loss     1000 m³   Full    days hr:min        LPS
  ------------------------------------------------------------------------------------------------
  CC-storage               2.911   45.4    0.0    0.0       5.403   84.3       0  02:33    1783.53
  JK-storage               0.154   52.9    0.0    0.0       0.213   73.0       0  02:29    2300.00
  
  
  ***********************
  Outfall Loading Summary
  ***********************
  
  -----------------------------------------------------------
                         Flow       Avg       Max       Total
                         Freq      Flow      Flow      Volume
  Outfall Node           Pcnt       LPS       LPS    10^6 ltr
  -----------------------------------------------------------
  CC-1                  23.07    683.00    683.00       4.433
  CC-2                  19.30    683.00    683.00       3.606
  JK-1                  10.99   1000.00   1000.00       2.457
  JK-2                   3.53   1000.00   1000.00       0.971
  WSC                   99.96    264.30    555.05       5.858
  -----------------------------------------------------------
  System                31.37   3630.30   3920.73      17.324
  
  
  ********************
  Link Flow Summary
  ********************
  
  -----------------------------------------------------------------------------
                                 Maximum  Time of Max   Maximum    Max/    Max/
                                  |Flow|   Occurrence   |Veloc|    Full    Full
  Link                 Type          LPS  days hr:min     m/sec    Flow   Depth
  -----------------------------------------------------------------------------
  1                    CONDUIT    555.05     0  02:38      2.83    0.19    0.30
  WS02003060WS02003069 CONDUIT    553.19     0  02:26      1.64    0.22    0.34
  WS02003066WSF200     CONDUIT    536.63     0  02:25      2.85    0.09    0.22
  WS02003067WS02003066 CONDUIT    536.60     0  02:25      1.21    0.17    0.42
  WS02003069WS02003072 CONDUIT    553.29     0  02:26      1.37    0.27    0.39
  WS02003072WS02003073 CONDUIT    553.25     0  02:37      1.44    1.19    0.37
  WS02004401WS02004402 CONDUIT    537.97     0  02:22      0.98    0.65    0.86
  WS02004402WS02004403 CONDUIT    537.84     0  02:23      0.97    0.77    0.88
  WS02004403WS02004404 CONDUIT    537.45     0  02:23      0.92    0.39    0.93
  WS02004404WS02004405 CONDUIT    537.52     0  02:23      1.08    5.27    0.96
  WS02004405WS02004406 CONDUIT    537.77     0  02:23      0.99    1.06    0.96
  WS02004406WS02004407 CONDUIT    537.36     0  02:23      1.04    0.24    0.63
  WS02004407WS02004409 CONDUIT    537.17     0  02:23      1.57    0.19    0.48
  WS02004409WS02004410 CONDUIT    536.98     0  02:24      1.03    0.69    0.67
  WS02004410WS02004411 CONDUIT    536.80     0  02:24      0.95    0.73    0.69
  WS02004411WS02004412 CONDUIT    536.77     0  02:24      0.92    0.76    0.69
  WS02004412WS02004413 CONDUIT    536.67     0  02:24      0.82    0.36    0.78
  WS02004413WS02003067 CONDUIT    536.55     0  02:25      1.11    0.23    0.59
  WS02006109WS02006110 CONDUIT    560.94     0  03:16      1.12    1.08    1.00
  WS02006110WS02006113 CONDUIT    577.53     0  02:43      1.40    0.53    0.79
  WS02006111WS02006112 CONDUIT    543.45     0  03:18      1.81    0.26    0.67
  WS02006112WS02006115 CONDUIT    553.64     0  03:00      0.85    0.33    0.87
  WS02006113WS02006111 CONDUIT    561.01     0  02:54      2.47    0.67    0.46
  WS02006115WS02006116 CONDUIT    539.85     0  03:00      1.02    0.69    0.76
  WS02006116WS02004401 CONDUIT    538.42     0  02:22      0.98    0.74    0.84
  WS02006228WS02006109 CONDUIT    559.54     0  02:43      1.11    2.44    1.00
  WS02006229WS02006228 CONDUIT    559.73     0  02:43      1.14    1.85    1.00
  WS02006230WS02006229 CONDUIT    560.53     0  02:43      1.46   12.47    1.00
  WS02006231WS02006230 CONDUIT    593.68     0  02:59      1.60    9.01    1.00
  WS02006232WS02006231 CONDUIT    589.78     0  02:52      1.53    1.24    1.00
  WS02006234WS02006232 CONDUIT    588.15     0  02:52      1.53    1.19    1.00
  WS02006235WS02006234 CONDUIT    580.09     0  02:52      1.51    6.12    1.00
  WS02006238WS02006235 CONDUIT    425.01     0  02:55      1.56    0.95    1.00
  WS02006239WS02006238 CONDUIT    425.23     0  02:55      1.10    1.36    1.00
  WS02006240WS02006239 CONDUIT    423.47     0  02:55      1.24    1.33    1.00
  WS02006242WS02006240 CONDUIT    419.72     0  01:55      1.13    1.67    1.00
  WS02006243WS02006242 CONDUIT    419.69     0  01:55      1.40    0.90    1.00
  WS02006245WS02006243 CONDUIT    419.42     0  02:55      1.45    1.24    1.00
  WS02006247WS02006245 CONDUIT    419.92     0  02:55      1.43    3.33    1.00
  WS02006248WS02006247 CONDUIT    420.80     0  02:55      1.44    0.92    1.00
  WS02006249WS02006248 CONDUIT    420.92     0  02:55      1.36    2.31    1.00
  WS02006251WS02006249 CONDUIT    459.02     0  00:00      1.99    1.32    1.00
  WS02006252WS02006251 CONDUIT    407.12     0  01:49     24.61    1.49    1.00
  WS02006256WS02006235 CONDUIT    289.21     0  01:39      4.23    3.06    1.00
  WSF200WS02003060     CONDUIT    536.78     0  02:25      2.06    0.12    0.28
  YS02001580YS02001583 CONDUIT     79.01     0  01:48      0.57    0.31    1.00
  YS02001583YS02001586 CONDUIT    136.88     0  01:47      0.58    0.21    1.00
  YS02001586YS02001590 CONDUIT    318.43     0  02:21      1.25    0.56    1.00
  YS02001590YS02001593 CONDUIT    318.41     0  02:21      1.13    2.00    1.00
  YS02001593YS02001596 CONDUIT    318.07     0  02:21      1.70    0.50    1.00
  YS02001596YS02001600 CONDUIT    318.52     0  01:53      1.26    0.62    1.00
  YS02001600YS02001601 CONDUIT    318.35     0  01:53      1.13    0.55    1.00
  YS02001601YS02001602 CONDUIT    506.42     0  01:47      1.79    1.83    1.00
  YS02001602YS02001605 CONDUIT    506.84     0  01:47      1.79   10.73    1.00
  YS02001605YS02001607 CONDUIT    507.17     0  01:47      1.79    2.78    1.00
  YS02001607YS02001610 CONDUIT    506.81     0  01:47      0.65    0.48    1.00
  YS02001610YS02001613 CONDUIT    617.83     0  02:05      0.79    0.71    1.00
  YS02001613YS02001616 CONDUIT    616.92     0  02:05      0.79    0.53    1.00
  YS02001616YS02001619 CONDUIT    617.78     0  02:05      0.79    1.07    1.00
  YS02001619YS02001622 CONDUIT   1053.93     0  02:08      1.34    1.55    1.00
  YS02001622YS02001625 CONDUIT   1053.72     0  02:07      1.34    0.56    1.00
  YS02001625YS02001629 CONDUIT    910.58     0  01:50      1.16    0.43    1.00
  YS02001629YS02163301 CONDUIT    910.07     0  01:50      1.16    1.12    1.00
  YS02001633YS02163601 CONDUIT   1312.36     0  01:50      1.67    1.38    1.00
  YS02001641YS02001644 CONDUIT   1308.39     0  01:50      1.67    4.23    1.00
  YS02001644YS02001647 CONDUIT   1673.71     0  01:51      2.17    0.98    1.00
  YS02001647YS02001649 CONDUIT   1680.08     0  01:51      2.29    0.89    1.00
  YS02001649YS02001757 CONDUIT   1815.50     0  01:52      2.36    1.10    1.00
  YS02001652YS02001649 CONDUIT   1266.45     0  02:01      1.61    0.63    1.00
  YS02001655YS02001652 CONDUIT   1266.74     0  02:01      1.61    0.62    1.00
  YS02001658YS02001655 CONDUIT   1266.33     0  02:01      1.86    0.54    1.00
  YS02001661YS02001658 CONDUIT   1266.43     0  02:01      2.21    0.50    1.00
  YS02001664YS02001661 CONDUIT   1265.75     0  02:01      2.14    0.40    0.93
  YS02001745YS02001748 CONDUIT    801.24     0  02:01      2.06    0.31    0.99
  YS02001748YS02001751 CONDUIT    801.56     0  02:01      1.63    0.40    1.00
  YS02001751YS02001754 CONDUIT    801.46     0  02:01      1.44    0.39    1.00
  YS02001754YS02001757 CONDUIT    802.21     0  02:01      1.02    0.32    1.00
  YS02001757CaochengTiaoxuchi CONDUIT   3104.14     0  01:59      3.95    1.34    1.00
  YS02001759YS02001757 CONDUIT   1359.37     0  02:01      1.73    0.97    1.00
  YS02001762YS02001759 CONDUIT    695.57     0  01:55      0.89    0.80    1.00
  YS02001765YS02001762 CONDUIT    696.00     0  01:55      0.89    0.65    1.00
  YS02001767YS02001765 CONDUIT    696.36     0  01:55      0.89    0.88    1.00
  YS02001770YS02001767 CONDUIT    696.56     0  01:55      0.89    2.76    1.00
  YS02001774YS02001770 CONDUIT    851.19     0  02:05      1.08    0.54    1.00
  YS02001779YS02001774 CONDUIT    851.25     0  02:05      1.08    0.43    1.00
  YS02001783YS02001784 CONDUIT   1173.28     0  02:01      2.33    1.62    1.00
  YS02001784YS02001785 CONDUIT   1174.54     0  02:01      2.34    2.73    1.00
  YS02001786YS02001788 CONDUIT   1175.34     0  02:01      2.50    2.26    0.89
  YS02001788YS02001790 CONDUIT   1183.56     0  02:01      2.72    0.87    0.85
  YS02001790YS02001791 CONDUIT   1303.20     0  01:58      3.44    1.42    0.71
  YS02001791YS02001793 CONDUIT   1260.69     0  01:59      6.76    0.54    0.44
  YS02001793JiankangQianchi CONDUIT   1253.44     0  02:01      2.51    0.10    0.65
  YS02001882YS02001884 CONDUIT     34.20     0  01:49      0.16    0.04    1.00
  YS02001884YS02001887 CONDUIT     60.87     0  01:49      0.12    0.08    1.00
  YS02001887YS02001890 CONDUIT   1181.23     0  02:01      1.50    2.02    1.00
  YS02001890YS02001895 CONDUIT    517.96     0  02:01      0.66    0.24    1.00
  YS02001895YS02001898 CONDUIT    517.70     0  02:02      0.66    0.90    1.00
  YS02001898YS02001901 CONDUIT    518.01     0  02:01      0.66    0.33    1.00
  YS02001901YS02001904 CONDUIT    517.83     0  02:09      0.66    0.80    1.00
  YS02001904YS02001907 CONDUIT    518.22     0  02:09      0.66    0.18    1.00
  YS02001907YS02006553 CONDUIT    797.27     0  02:24      0.89    0.94    1.00
  YS02001910YS02001907 CONDUIT   1992.64     0  02:02      2.54    1.12    1.00
  YS02001915YS02001910 CONDUIT   1992.70     0  02:02      2.54    0.99    1.00
  YS02001918YS02001915 CONDUIT    684.05     0  02:02      0.87    0.38    1.00
  YS02001920YS02001918 CONDUIT    684.24     0  02:02      0.87    0.66    1.00
  YS02001923YS02001920 CONDUIT    680.98     0  02:02      0.87    0.31    1.00
  YS02001926YS02001923 CONDUIT    680.46     0  02:03      0.95    0.97    1.00
  YS02001929YS02001926 CONDUIT    680.63     0  02:03      1.09    0.32    1.00
  YS02006553YS02006556 CONDUIT    797.00     0  02:24      1.01    0.68    1.00
  YS02006556YS02006558 CONDUIT    798.08     0  02:25      1.02    0.63    1.00
  YS02006558YS02006561 CONDUIT   1173.52     0  02:01      4.15    2.59    1.00
  YS02006561YS02001783 CONDUIT   1173.25     0  02:01      2.33    0.61    1.00
  YS02163301YS02001633 CONDUIT    909.38     0  01:50      1.16    0.85    1.00
  YS02163601YS02164001 CONDUIT   1311.47     0  01:50      1.67    1.16    1.00
  YS02164001YS02001641 CONDUIT   1309.34     0  01:50      1.67    1.79    1.00
  CC-R1                PUMP       683.00     0  00:00              1.00
  CC-R2                PUMP       683.00     0  00:00              1.00
  CC-S1                PUMP       200.00     0  00:00              1.00
  CC-S2                PUMP       200.00     0  00:00              1.00
  JK-R1                PUMP      1000.00     0  00:00              1.00
  JK-R2                PUMP      1000.00     0  00:00              1.00
  JK-S                 PUMP       300.00     0  00:00              1.00
  
  
  ***************************
  Flow Classification Summary
  ***************************
  
  -------------------------------------------------------------------------------------
                      Adjusted    ---------- Fraction of Time in Flow Class ---------- 
                       /Actual         Up    Down  Sub   Sup   Up    Down  Norm  Inlet 
  Conduit               Length    Dry  Dry   Dry   Crit  Crit  Crit  Crit  Ltd   Ctrl  
  -------------------------------------------------------------------------------------
  1                       1.00   0.00  0.00  0.00  0.00  1.00  0.00  0.00  0.40  0.00
  WS02003060WS02003069    1.00   0.00  0.00  0.00  0.99  0.01  0.00  0.00  0.67  0.00
  WS02003066WSF200        1.00   0.13  0.00  0.00  0.00  0.87  0.00  0.00  0.74  0.00
  WS02003067WS02003066    1.00   0.10  0.02  0.00  0.88  0.00  0.00  0.00  0.00  0.00
  WS02003069WS02003072    1.00   0.00  0.00  0.00  0.99  0.01  0.00  0.00  0.69  0.00
  WS02003072WS02003073    1.00   0.00  0.00  0.00  0.00  0.00  0.00  1.00  0.00  0.00
  WS02004401WS02004402    1.00   0.02  0.00  0.00  0.98  0.00  0.00  0.00  0.00  0.00
  WS02004402WS02004403    1.00   0.02  0.00  0.00  0.97  0.00  0.00  0.00  0.00  0.00
  WS02004403WS02004404    1.00   0.00  0.03  0.00  0.97  0.00  0.00  0.00  0.00  0.00
  WS02004404WS02004405    1.00   0.00  0.00  0.00  1.00  0.00  0.00  0.00  0.00  0.00
  WS02004405WS02004406    1.00   0.00  0.00  0.00  1.00  0.00  0.00  0.00  0.00  0.00
  WS02004406WS02004407    1.00   0.00  0.05  0.00  0.95  0.00  0.00  0.00  0.00  0.00
  WS02004407WS02004409    1.00   0.05  0.00  0.00  0.94  0.01  0.00  0.00  0.94  0.00
  WS02004409WS02004410    1.00   0.05  0.00  0.00  0.95  0.00  0.00  0.00  0.03  0.00
  WS02004410WS02004411    1.00   0.05  0.00  0.00  0.95  0.00  0.00  0.00  0.01  0.00
  WS02004411WS02004412    1.00   0.05  0.00  0.00  0.95  0.00  0.00  0.00  0.00  0.00
  WS02004412WS02004413    1.00   0.05  0.00  0.00  0.94  0.00  0.00  0.00  0.01  0.00
  WS02004413WS02003067    1.00   0.06  0.04  0.00  0.00  0.00  0.90  0.00  0.00  0.00
  WS02006109WS02006110    1.00   0.00  0.01  0.00  0.98  0.00  0.01  0.00  0.00  0.00
  WS02006110WS02006113    1.00   0.01  0.01  0.00  0.98  0.00  0.00  0.00  0.00  0.00
  WS02006111WS02006112    1.00   0.02  0.00  0.00  0.98  0.00  0.00  0.00  0.98  0.00
  WS02006112WS02006115    1.00   0.02  0.00  0.00  0.97  0.00  0.00  0.00  0.00  0.00
  WS02006113WS02006111    1.00   0.02  0.00  0.00  0.00  0.98  0.00  0.00  0.13  0.00
  WS02006115WS02006116    1.00   0.02  0.00  0.00  0.97  0.00  0.00  0.01  0.00  0.00
  WS02006116WS02004401    1.00   0.02  0.00  0.00  0.98  0.00  0.00  0.00  0.00  0.00
  WS02006228WS02006109    1.00   0.00  0.00  0.00  1.00  0.00  0.00  0.00  0.00  0.00
  WS02006229WS02006228    1.00   0.00  0.00  0.00  0.99  0.00  0.00  0.01  0.00  0.00
  WS02006230WS02006229    1.00   0.00  0.00  0.00  0.99  0.00  0.00  0.01  0.00  0.00
  WS02006231WS02006230    1.00   0.00  0.00  0.00  0.30  0.00  0.69  0.00  0.00  0.00
  WS02006232WS02006231    1.00   0.00  0.00  0.00  0.99  0.00  0.01  0.00  0.00  0.00
  WS02006234WS02006232    1.00   0.00  0.00  0.00  1.00  0.00  0.00  0.00  0.10  0.00
  WS02006235WS02006234    1.00   0.00  0.00  0.00  0.83  0.00  0.17  0.00  0.00  0.00
  WS02006238WS02006235    1.00   0.00  0.00  0.00  1.00  0.00  0.00  0.00  0.00  0.00
  WS02006239WS02006238    1.00   0.00  0.00  0.00  1.00  0.00  0.00  0.00  0.28  0.00
  WS02006240WS02006239    1.00   0.00  0.00  0.00  0.63  0.00  0.00  0.37  0.02  0.00
  WS02006242WS02006240    1.00   0.00  0.00  0.00  0.99  0.00  0.01  0.00  0.00  0.00
  WS02006243WS02006242    1.00   0.00  0.00  0.00  0.98  0.00  0.00  0.01  0.50  0.00
  WS02006245WS02006243    1.00   0.00  0.00  0.00  0.74  0.00  0.00  0.25  0.01  0.00
  WS02006247WS02006245    1.00   0.00  0.00  0.00  0.98  0.00  0.00  0.01  0.00  0.00
  WS02006248WS02006247    1.00   0.00  0.00  0.00  0.99  0.00  0.00  0.01  0.28  0.00
  WS02006249WS02006248    1.00   0.00  0.00  0.00  0.50  0.00  0.50  0.00  0.00  0.00
  WS02006251WS02006249    1.00   0.00  0.00  0.00  1.00  0.00  0.00  0.00  0.51  0.00
  WS02006252WS02006251    1.00   0.00  0.53  0.00  0.14  0.00  0.33  0.00  0.00  0.00
  WS02006256WS02006235    1.00   0.00  0.00  0.00  1.00  0.00  0.00  0.00  0.00  0.00
  WSF200WS02003060        1.00   0.00  0.13  0.00  0.29  0.58  0.00  0.00  0.44  0.00
  YS02001580YS02001583    1.00   0.22  0.54  0.00  0.24  0.00  0.00  0.00  0.64  0.00
  YS02001583YS02001586    1.00   0.41  0.30  0.00  0.29  0.00  0.00  0.00  0.64  0.00
  YS02001586YS02001590    1.00   0.13  0.00  0.00  0.45  0.04  0.00  0.38  0.34  0.00
  YS02001590YS02001593    1.00   0.13  0.01  0.00  0.16  0.00  0.70  0.00  0.00  0.00
  YS02001593YS02001596    1.00   0.13  0.00  0.00  0.18  0.01  0.00  0.68  0.02  0.00
  YS02001596YS02001600    1.00   0.13  0.00  0.00  0.23  0.01  0.00  0.63  0.04  0.00
  YS02001600YS02001601    1.00   0.13  0.01  0.00  0.86  0.00  0.00  0.00  0.58  0.00
  YS02001601YS02001602    1.00   0.13  0.01  0.00  0.87  0.00  0.00  0.00  0.00  0.00
  YS02001602YS02001605    1.00   0.13  0.00  0.00  0.87  0.00  0.00  0.00  0.00  0.00
  YS02001605YS02001607    1.00   0.13  0.00  0.00  0.87  0.00  0.00  0.00  0.00  0.00
  YS02001607YS02001610    1.00   0.13  0.01  0.00  0.86  0.00  0.00  0.00  0.01  0.00
  YS02001610YS02001613    1.00   0.13  0.00  0.00  0.87  0.00  0.00  0.00  0.00  0.00
  YS02001613YS02001616    1.00   0.13  0.00  0.00  0.87  0.00  0.00  0.00  0.00  0.00
  YS02001616YS02001619    1.00   0.13  0.00  0.00  0.87  0.00  0.00  0.00  0.00  0.00
  YS02001619YS02001622    1.00   0.13  0.00  0.00  0.87  0.00  0.00  0.00  0.27  0.00
  YS02001622YS02001625    1.00   0.13  0.00  0.00  0.87  0.00  0.00  0.00  0.03  0.00
  YS02001625YS02001629    1.00   0.13  0.04  0.00  0.21  0.00  0.63  0.00  0.00  0.00
  YS02001629YS02163301    1.00   0.15  0.01  0.00  0.84  0.00  0.00  0.00  0.00  0.00
  YS02001633YS02163601    1.00   0.00  0.01  0.00  0.99  0.00  0.00  0.00  0.14  0.00
  YS02001641YS02001644    1.00   0.00  0.01  0.00  0.99  0.00  0.00  0.00  0.00  0.00
  YS02001644YS02001647    1.00   0.00  0.16  0.00  0.84  0.00  0.00  0.00  0.00  0.00
  YS02001647YS02001649    1.00   0.00  0.16  0.00  0.61  0.23  0.00  0.00  0.56  0.00
  YS02001649YS02001757    1.00   0.00  0.00  0.00  0.89  0.11  0.00  0.00  0.44  0.00
  YS02001652YS02001649    1.00   0.00  0.00  0.00  0.97  0.03  0.00  0.00  0.70  0.00
  YS02001655YS02001652    1.00   0.00  0.00  0.00  0.24  0.01  0.00  0.75  0.05  0.00
  YS02001658YS02001655    1.00   0.00  0.14  0.00  0.71  0.15  0.00  0.00  0.62  0.00
  YS02001661YS02001658    1.00   0.14  0.00  0.00  0.55  0.31  0.00  0.00  0.64  0.00
  YS02001664YS02001661    1.00   0.13  0.00  0.00  0.80  0.08  0.00  0.00  0.82  0.00
  YS02001745YS02001748    1.00   0.00  0.00  0.00  0.16  0.00  0.00  0.84  0.04  0.00
  YS02001748YS02001751    1.00   0.00  0.00  0.00  0.87  0.13  0.00  0.00  0.73  0.00
  YS02001751YS02001754    1.00   0.00  0.00  0.00  0.22  0.01  0.00  0.77  0.03  0.00
  YS02001754YS02001757    1.00   0.00  0.00  0.00  1.00  0.00  0.00  0.00  0.75  0.00
  YS02001757CaochengTiaoxuchi    1.00   0.00  0.00  0.00  1.00  0.00  0.00  0.00  0.56  0.00
  YS02001759YS02001757    1.00   0.00  0.00  0.00  0.99  0.01  0.00  0.00  0.49  0.00
  YS02001762YS02001759    1.00   0.00  0.00  0.00  1.00  0.00  0.00  0.00  0.05  0.00
  YS02001765YS02001762    1.00   0.00  0.00  0.00  1.00  0.00  0.00  0.00  0.62  0.00
  YS02001767YS02001765    1.00   0.00  0.00  0.00  1.00  0.00  0.00  0.00  0.01  0.00
  YS02001770YS02001767    1.00   0.00  0.00  0.00  1.00  0.00  0.00  0.00  0.00  0.00
  YS02001774YS02001770    1.00   0.00  0.13  0.00  0.71  0.00  0.16  0.00  0.02  0.00
  YS02001779YS02001774    1.00   0.00  0.00  0.00  1.00  0.00  0.00  0.00  0.72  0.00
  YS02001783YS02001784    1.00   0.00  0.17  0.00  0.83  0.00  0.00  0.00  0.55  0.00
  YS02001784YS02001785    1.00   0.00  0.00  0.00  1.00  0.00  0.00  0.00  0.16  0.00
  YS02001786YS02001788    1.00   0.00  0.00  0.00  0.80  0.20  0.00  0.00  0.00  0.00
  YS02001788YS02001790    1.00   0.00  0.00  0.00  0.21  0.79  0.00  0.00  0.78  0.00
  YS02001790YS02001791    1.00   0.00  0.00  0.00  0.01  0.99  0.00  0.00  0.15  0.00
  YS02001791YS02001793    1.00   0.00  0.00  0.00  0.00  1.00  0.00  0.00  0.01  0.00
  YS02001793JiankangQianchi    1.00   0.00  0.00  0.00  0.96  0.04  0.00  0.00  0.95  0.00
  YS02001882YS02001884    1.00   0.15  0.01  0.00  0.85  0.00  0.00  0.00  0.00  0.00
  YS02001884YS02001887    1.00   0.06  0.05  0.00  0.89  0.00  0.00  0.00  0.00  0.00
  YS02001887YS02001890    1.00   0.00  0.00  0.00  0.97  0.00  0.03  0.00  0.00  0.00
  YS02001890YS02001895    1.00   0.00  0.15  0.00  0.85  0.00  0.00  0.00  0.00  0.00
  YS02001895YS02001898    1.00   0.16  0.00  0.00  0.83  0.00  0.02  0.00  0.00  0.00
  YS02001898YS02001901    1.00   0.16  0.00  0.00  0.84  0.00  0.00  0.00  0.01  0.00
  YS02001901YS02001904    1.00   0.16  0.00  0.00  0.84  0.00  0.00  0.00  0.00  0.00
  YS02001904YS02001907    1.00   0.00  0.15  0.00  0.84  0.00  0.00  0.00  0.00  0.00
  YS02001907YS02006553    1.00   0.00  0.02  0.00  0.98  0.00  0.00  0.00  0.00  0.00
  YS02001910YS02001907    1.00   0.00  0.00  0.00  0.97  0.00  0.00  0.03  0.12  0.00
  YS02001915YS02001910    1.00   0.00  0.00  0.00  0.97  0.03  0.00  0.00  0.13  0.00
  YS02001918YS02001915    1.00   0.00  0.01  0.00  0.98  0.02  0.00  0.00  0.71  0.00
  YS02001920YS02001918    1.00   0.00  0.01  0.00  0.99  0.00  0.00  0.00  0.00  0.00
  YS02001923YS02001920    1.00   0.00  0.00  0.00  1.00  0.00  0.00  0.00  0.89  0.00
  YS02001926YS02001923    1.00   0.00  0.07  0.00  0.09  0.00  0.84  0.00  0.00  0.00
  YS02001929YS02001926    1.00   0.00  0.13  0.00  0.87  0.00  0.00  0.00  0.80  0.00
  YS02006553YS02006556    1.00   0.01  0.00  0.00  0.99  0.00  0.00  0.00  0.03  0.00
  YS02006556YS02006558    1.00   0.00  0.00  0.00  1.00  0.00  0.00  0.00  0.00  0.00
  YS02006558YS02006561    1.00   0.17  0.00  0.00  0.08  0.75  0.00  0.00  0.17  0.00
  YS02006561YS02001783    1.00   0.17  0.00  0.00  0.12  0.71  0.00  0.00  0.66  0.00
  YS02163301YS02001633    1.00   0.00  0.14  0.00  0.86  0.00  0.00  0.00  0.00  0.00
  YS02163601YS02164001    1.00   0.00  0.08  0.00  0.92  0.00  0.00  0.00  0.00  0.00
  YS02164001YS02001641    1.00   0.01  0.07  0.00  0.92  0.00  0.00  0.00  0.05  0.00
  
  
  *************************
  Conduit Surcharge Summary
  *************************
  
  ----------------------------------------------------------------------------
                                                           Hours        Hours 
                         --------- Hours Full --------   Above Full   Capacity
  Conduit                Both Ends  Upstream  Dnstream   Normal Flow   Limited
  ----------------------------------------------------------------------------
  WS02003072WS02003073        0.01      0.01      0.01      1.33         0.01
  WS02004404WS02004405        0.01      0.01      0.01      3.66         0.01
  WS02004405WS02004406        0.01      0.01      0.01      0.91         0.01
  WS02006109WS02006110        0.91      0.91      2.32      1.03         0.01
  WS02006110WS02006113        0.01      0.01      2.31      0.01         0.01
  WS02006111WS02006112        0.01      0.01      2.54      0.01         0.01
  WS02006112WS02006115        0.01      0.01      0.96      0.01         0.01
  WS02006228WS02006109        2.30      2.32      2.30      2.75         2.30
  WS02006229WS02006228        2.29      2.30      2.29      2.49         2.28
  WS02006230WS02006229        2.38      2.46      2.38      4.26         2.38
  WS02006231WS02006230        0.92      0.92      1.10      3.93         0.01
  WS02006232WS02006231        1.05      1.05      2.33      1.11         0.01
  WS02006234WS02006232        2.24      2.24      2.33      1.10         1.09
  WS02006235WS02006234        1.29      1.29      2.25      3.83         0.02
  WS02006238WS02006235        2.27      2.27      2.33      0.01         0.01
  WS02006239WS02006238        2.29      2.31      2.30      2.32         2.10
  WS02006240WS02006239        2.27      2.30      2.27      2.32         1.96
  WS02006242WS02006240        2.29      2.29      2.32      2.41         0.01
  WS02006243WS02006242        2.29      2.29      2.31      0.01         0.04
  WS02006245WS02006243        2.28      2.28      2.29      1.35         1.44
  WS02006247WS02006245        2.28      2.29      2.28      3.66         2.27
  WS02006248WS02006247        2.28      2.28      2.28      0.01         0.05
  WS02006249WS02006248        2.27      2.27      2.27      3.63         0.01
  WS02006251WS02006249        2.27      2.27      2.27      2.36         2.21
  WS02006252WS02006251        2.40      2.40      2.40      2.40         0.01
  WS02006256WS02006235        3.82      3.86      5.71      1.42         0.01
  YS02001580YS02001583        0.89      0.89      0.96      0.01         0.01
  YS02001583YS02001586        0.90      0.90      1.07      0.01         0.01
  YS02001586YS02001590        1.08      1.08      1.16      0.01         0.01
  YS02001590YS02001593        1.16      1.16      1.19      1.20         0.01
  YS02001593YS02001596        1.18      1.18      1.30      0.01         0.01
  YS02001596YS02001600        1.36      1.36      1.44      0.01         0.01
  YS02001600YS02001601        1.49      1.49      1.71      0.01         0.01
  YS02001601YS02001602        1.63      1.63      1.75      1.43         0.01
  YS02001602YS02001605        1.59      1.59      1.63      2.46         0.01
  YS02001605YS02001607        1.56      1.59      1.56      1.65         1.54
  YS02001607YS02001610        1.18      1.18      1.22      0.01         0.01
  YS02001610YS02001613        1.18      1.18      1.22      0.01         0.01
  YS02001613YS02001616        1.13      1.13      1.18      0.01         0.01
  YS02001616YS02001619        1.12      1.12      1.13      0.14         0.15
  YS02001619YS02001622        1.12      1.12      1.12      1.09         1.01
  YS02001622YS02001625        1.12      1.12      1.31      0.01         0.01
  YS02001625YS02001629        1.06      1.06      1.31      0.01         0.01
  YS02001629YS02163301        1.32      1.32      1.33      0.07         0.08
  YS02001633YS02163601        1.35      1.35      1.38      0.13         0.18
  YS02001641YS02001644        1.28      1.31      1.28      1.78         1.26
  YS02001644YS02001647        1.07      1.07      1.28      0.01         0.01
  YS02001647YS02001649        1.07      1.07      1.22      0.01         0.01
  YS02001649YS02001757        1.22      1.22      1.28      0.06         0.03
  YS02001652YS02001649        1.04      1.04      1.22      0.01         0.01
  YS02001655YS02001652        0.81      0.81      1.01      0.01         0.01
  YS02001658YS02001655        0.48      0.48      0.82      0.01         0.01
  YS02001661YS02001658        0.16      0.16      0.48      0.01         0.01
  YS02001664YS02001661        0.01      0.01      0.22      0.01         0.01
  YS02001745YS02001748        0.01      0.01      0.38      0.01         0.01
  YS02001748YS02001751        0.43      0.43      0.68      0.01         0.01
  YS02001751YS02001754        0.68      0.68      0.94      0.01         0.01
  YS02001754YS02001757        0.98      0.98      1.28      0.01         0.01
  YS02001757CaochengTiaoxuchi        1.28      1.28      2.31      0.45         0.45
  YS02001759YS02001757        1.21      1.21      1.28      0.01         0.01
  YS02001762YS02001759        1.18      1.18      1.21      0.01         0.02
  YS02001765YS02001762        1.14      1.14      1.18      0.01         0.01
  YS02001767YS02001765        1.10      1.10      1.14      0.01         0.02
  YS02001770YS02001767        1.10      1.10      1.10      0.72         0.65
  YS02001774YS02001770        1.06      1.06      1.16      0.01         0.01
  YS02001779YS02001774        0.92      0.92      1.16      0.01         0.01
  YS02001783YS02001784        0.72      0.75      0.72      0.93         0.72
  YS02001784YS02001785        0.59      0.72      0.59      1.23         0.59
  YS02001786YS02001788        0.01      0.59      0.01      1.06         0.01
  YS02001790YS02001791        0.01      0.01      0.01      0.71         0.01
  YS02001793JiankangQianchi        0.01      0.01      7.70      0.01         0.01
  YS02001882YS02001884        0.68      0.68      0.70      0.01         0.01
  YS02001884YS02001887        0.73      0.73      0.74      0.01         0.01
  YS02001887YS02001890        0.76      0.76      0.77      0.22         0.01
  YS02001890YS02001895        0.67      0.67      0.79      0.01         0.01
  YS02001895YS02001898        0.67      0.67      0.67      0.01         0.01
  YS02001898YS02001901        0.68      0.68      0.72      0.01         0.01
  YS02001901YS02001904        0.71      0.71      0.72      0.01         0.01
  YS02001904YS02001907        0.71      0.71      1.03      0.01         0.01
  YS02001907YS02006553        1.25      1.25      1.33      0.01         0.01
  YS02001910YS02001907        0.79      0.79      1.01      0.10         0.11
  YS02001915YS02001910        0.68      0.68      0.79      0.01         0.01
  YS02001918YS02001915        0.58      0.58      0.68      0.01         0.01
  YS02001920YS02001918        0.58      0.58      0.60      0.01         0.01
  YS02001923YS02001920        0.53      0.53      0.60      0.01         0.01
  YS02001926YS02001923        0.25      0.25      0.28      0.01         0.01
  YS02001929YS02001926        0.12      0.12      0.28      0.01         0.01
  YS02006553YS02006556        0.90      0.90      1.03      0.01         0.01
  YS02006556YS02006558        0.97      0.97      1.06      0.01         0.01
  YS02006558YS02006561        0.62      0.88      0.62      1.17         0.62
  YS02006561YS02001783        0.55      0.55      0.75      0.01         0.01
  YS02163301YS02001633        1.33      1.33      1.37      0.01         0.01
  YS02163601YS02164001        1.31      1.31      1.38      0.08         0.01
  YS02164001YS02001641        1.30      1.31      1.31      0.74         0.68
  
  
  ***************
  Pumping Summary
  ***************
  
  ---------------------------------------------------------------------------------------------------------
                                                  Min       Avg       Max     Total     Power    % Time Off
                        Percent   Number of      Flow      Flow      Flow    Volume     Usage    Pump Curve
  Pump                 Utilized   Start-Ups       LPS       LPS       LPS  10^6 ltr     Kw-hr    Low   High
  ---------------------------------------------------------------------------------------------------------
  CC-R1                   22.53           2      0.00    683.00    683.00     4.432     85.97    0.0    4.6
  CC-R2                   18.33           2      0.00    683.00    683.00     3.605     70.68    0.0    5.7
  CC-S1                   46.57           4      0.00    200.00    200.00     2.682     14.55    0.0    0.0
  CC-S2                   29.98           2      0.00    200.00    200.00     1.727      8.82    0.0    0.0
  JK-R1                    8.53          14      0.00   1000.00   1000.00     2.456     26.61    0.0    0.0
  JK-R2                    3.37           5      0.00   1000.00   1000.00     0.970      9.44    0.0    0.0
  JK-S                    17.77          13      0.00    300.00    300.00     1.536     22.65    0.0    0.0
  

  Analysis begun on:  Mon Feb 24 09:53:49 2025
  Analysis ended on:  Mon Feb 24 09:53:50 2025
  Total elapsed time: 00:00:01