
  EPA STORM WATER MANAGEMENT MODEL - VERSION 5.2 (Build 5.2.4)
  PYSWMM TOOLKIT API - VERSION v1.0 (2023-11-27)
  ------------------------------------------------------------

  WARNING 04: minimum elevation drop used for Conduit WS02004404WS02004405
  WARNING 03: negative offset ignored for Link YS02001904YS02001907
  
  ****************
  Analysis Options
  ****************
  Flow Units ............... LPS
  Process Models:
    Rainfall/Runoff ........ YES
    RDII ................... NO
    Snowmelt ............... NO
    Groundwater ............ NO
    Flow Routing ........... YES
    Ponding Allowed ........ NO
    Water Quality .......... NO
  Infiltration Method ...... HORTON
  Flow Routing Method ...... DYNWAVE
  Surcharge Method ......... EXTRAN
  Starting Date ............ 08/28/2015 08:00:00
  Ending Date .............. 08/28/2015 16:00:00
  Antecedent Dry Days ...... 8.0
  Report Time Step ......... 00:01:00
  Wet Time Step ............ 00:01:00
  Dry Time Step ............ 00:01:00
  Routing Time Step ........ 30.00 sec
  Variable Time Step ....... YES
  Maximum Trials ........... 8
  Number of Threads ........ 4
  Head Tolerance ........... 0.001500 m
  
  
  **************************        Volume         Depth
  Runoff Quantity Continuity     hectare-m            mm
  **************************     ---------       -------
  Total Precipitation ......         3.501       105.562
  Evaporation Loss .........         0.000         0.000
  Infiltration Loss ........         0.105         3.152
  Surface Runoff ...........         3.365       101.440
  Final Storage ............         0.033         0.996
  Continuity Error (%) .....        -0.025
  
  
  **************************        Volume        Volume
  Flow Routing Continuity        hectare-m      10^6 ltr
  **************************     ---------     ---------
  Dry Weather Inflow .......         0.025         0.251
  Wet Weather Inflow .......         3.364        33.645
  Groundwater Inflow .......         0.000         0.000
  RDII Inflow ..............         0.000         0.000
  External Inflow ..........         0.083         0.834
  External Outflow .........         1.821        18.209
  Flooding Loss ............         1.625        16.248
  Evaporation Loss .........         0.000         0.000
  Exfiltration Loss ........         0.000         0.000
  Initial Stored Volume ....         0.243         2.431
  Final Stored Volume ......         0.275         2.745
  Continuity Error (%) .....        -0.113
  
  
  *************************
  Highest Continuity Errors
  *************************
  Node YS02001884 (5.23%)
  Node YS02001583 (-5.06%)
  
  
  ***************************
  Time-Step Critical Elements
  ***************************
  Link WS02006252WS02006251 (46.56%)
  Link WS02004404WS02004405 (13.34%)
  Link YS02001791YS02001793 (9.20%)
  Link WS02006238WS02006235 (8.55%)
  Link WS02006235WS02006234 (7.84%)
  
  
  ********************************
  Highest Flow Instability Indexes
  ********************************
  Link WS02006113WS02006111 (49)
  Link WS02006111WS02006112 (29)
  Link WS02004404WS02004405 (21)
  Link WS02004403WS02004404 (19)
  Link WS02006252WS02006251 (18)
  
  
  *********************************
  Most Frequent Nonconverging Nodes
  *********************************
  Node CC-1 (12.13%)
  Node CC-2 (12.13%)
  Node JK-1 (12.13%)
  Node JK-2 (12.13%)
  Node WSC (12.13%)
  
  
  *************************
  Routing Time Step Summary
  *************************
  Minimum Time Step           :     0.00 sec
  Average Time Step           :     1.95 sec
  Maximum Time Step           :     7.04 sec
  % of Time in Steady State   :     0.00
  Average Iterations per Step :     3.12
  % of Steps Not Converging   :    12.13
  Time Step Frequencies       :
     30.000 - 13.228 sec      :     0.00 %
     13.228 -  5.833 sec      :     8.24 %
      5.833 -  2.572 sec      :    19.18 %
      2.572 -  1.134 sec      :    20.71 %
      1.134 -  0.500 sec      :    51.88 %
  
  
  ***************************
  Subcatchment Runoff Summary
  ***************************
  
  ------------------------------------------------------------------------------------------------------------------------------
                            Total      Total      Total      Total     Imperv       Perv      Total       Total     Peak  Runoff
                           Precip      Runon       Evap      Infil     Runoff     Runoff     Runoff      Runoff   Runoff   Coeff
  Subcatchment                 mm         mm         mm         mm         mm         mm         mm    10^6 ltr      LPS
  ------------------------------------------------------------------------------------------------------------------------------
  sub60                    105.56       0.00       0.00       1.88      91.71      10.79     102.49        1.35   978.52   0.971
  sub61                    105.56       0.00       0.00       2.73      86.50      15.22     101.72        1.87  1362.26   0.964
  sub62                    105.56       0.00       0.00       1.25      95.84       7.19     103.04        2.82  1923.98   0.976
  sub63                    105.56       0.00       0.00       5.04      73.99      25.58      99.57        2.26  1552.64   0.943
  sub64                    105.56       0.00       0.00       2.55      88.53      13.29     101.82        2.45  1591.38   0.965
  sub65                    105.56       0.00       0.00       2.21      90.60      11.52     102.12        2.81  1780.43   0.967
  sub66                    105.56       0.00       0.00       6.27      73.88      24.35      98.23        4.58  2407.28   0.930
  sub67                    105.56       0.00       0.00       1.20      95.89       7.24     103.13        1.92  1470.44   0.977
  sub68                    105.56       0.00       0.00       2.26      89.61      12.52     102.13        2.81  1967.70   0.967
  sub69                    105.56       0.00       0.00       2.04      89.63      13.80     103.42        3.83  2364.61   0.980
  sub70                    105.56       0.00       0.00       6.85      69.51      29.04      98.55        2.85  1348.34   0.934
  sub71                    105.56       0.00       0.00       1.29      95.80       7.16     102.96        2.69  1715.17   0.975
  sub72                    105.56       0.00       0.00       1.15      96.78       6.24     103.02        1.42   833.74   0.976
  
  
  ******************
  Node Depth Summary
  ******************
  
  ---------------------------------------------------------------------------------
                                 Average  Maximum  Maximum  Time of Max    Reported
                                   Depth    Depth      HGL   Occurrence   Max Depth
  Node                 Type       Meters   Meters   Meters  days hr:min      Meters
  ---------------------------------------------------------------------------------
  WS02003060           JUNCTION     0.24     0.38     5.32     0  03:18        0.38
  WS02003066           JUNCTION     0.20     0.30     5.85     0  03:17        0.30
  WS02003067           JUNCTION     0.51     0.70     6.02     0  03:17        0.70
  WS02003069           JUNCTION     0.27     0.43     5.01     0  03:18        0.43
  WS02003072           JUNCTION     0.33     0.50     4.87     0  03:19        0.50
  WS02003073           JUNCTION     0.19     0.30     4.36     0  03:20        0.30
  WS02004401           JUNCTION     0.60     0.88     6.88     0  02:15        0.87
  WS02004402           JUNCTION     0.64     0.90     6.86     0  03:16        0.90
  WS02004403           JUNCTION     0.66     0.92     6.85     0  02:16        0.92
  WS02004404           JUNCTION     0.73     1.06     6.91     0  02:15        1.00
  WS02004405           JUNCTION     0.72     0.97     6.82     0  03:15        0.96
  WS02004406           JUNCTION     0.73     0.96     6.79     0  03:15        0.96
  WS02004407           JUNCTION     0.18     0.30     6.61     0  03:16        0.30
  WS02004409           JUNCTION     0.40     0.67     6.44     0  03:16        0.67
  WS02004410           JUNCTION     0.42     0.68     6.40     0  03:16        0.68
  WS02004411           JUNCTION     0.44     0.69     6.37     0  03:16        0.69
  WS02004412           JUNCTION     0.46     0.70     6.34     0  03:17        0.70
  WS02004413           JUNCTION     0.62     0.86     6.33     0  03:17        0.86
  WS02006109           JUNCTION     0.65     1.32     7.93     0  03:04        1.16
  WS02006110           JUNCTION     0.65     1.40     7.98     0  03:04        1.02
  WS02006111           JUNCTION     0.18     0.29     6.99     0  01:53        0.29
  WS02006112           JUNCTION     0.76     1.10     6.98     0  03:04        1.07
  WS02006113           JUNCTION     0.27     0.46     7.35     0  01:53        0.46
  WS02006115           JUNCTION     0.49     0.77     6.91     0  03:15        0.77
  WS02006116           JUNCTION     0.57     0.85     6.89     0  02:15        0.85
  WS02006228           JUNCTION     0.64     1.26     7.91     0  01:51        1.21
  WS02006229           JUNCTION     0.61     1.31     8.00     0  01:51        1.18
  WS02006230           JUNCTION     0.61     1.54     8.29     0  01:51        1.33
  WS02006231           JUNCTION     0.42     1.40     8.52     0  02:29        1.04
  WS02006232           JUNCTION     0.55     1.50     8.54     0  02:29        1.24
  WS02006234           JUNCTION     0.48     1.96     9.12     0  01:55        1.50
  WS02006235           JUNCTION     0.52     1.83     8.99     0  01:55        1.53
  WS02006238           JUNCTION     0.55     1.89     9.03     0  01:55        1.54
  WS02006239           JUNCTION     0.52     1.76     8.97     0  01:55        1.64
  WS02006240           JUNCTION     0.49     1.73     9.03     0  02:29        1.73
  WS02006242           JUNCTION     0.56     1.55     8.82     0  01:55        1.55
  WS02006243           JUNCTION     0.47     1.48     8.90     0  02:29        1.48
  WS02006245           JUNCTION     0.48     1.56     9.04     0  02:29        1.56
  WS02006247           JUNCTION     0.50     1.47     8.97     0  02:29        1.47
  WS02006248           JUNCTION     0.46     1.10     8.69     0  01:51        1.10
  WS02006249           JUNCTION     0.50     1.09     8.69     0  01:48        1.09
  WS02006251           JUNCTION     0.50     1.60     9.27     0  01:48        1.24
  WS02006252           JUNCTION     0.36     1.50     9.74     0  00:00        1.16
  WS02006256           JUNCTION     0.95     2.35     9.28     0  00:00        2.35
  WSF200               JUNCTION     0.17     0.29     5.52     0  03:17        0.29
  YS02001580           JUNCTION     0.12     1.05     9.59     0  01:46        0.77
  YS02001583           JUNCTION     0.15     1.14     9.64     0  01:46        0.82
  YS02001586           JUNCTION     0.24     1.13     9.30     0  01:46        1.13
  YS02001590           JUNCTION     0.34     1.38     9.24     0  01:46        1.37
  YS02001593           JUNCTION     0.27     1.30     9.16     0  02:29        1.29
  YS02001596           JUNCTION     0.37     1.67     9.08     0  02:29        1.66
  YS02001600           JUNCTION     0.44     1.87     9.00     0  02:29        1.87
  YS02001601           JUNCTION     0.63     2.06     8.90     0  01:46        2.06
  YS02001602           JUNCTION     0.54     1.87     8.77     0  01:49        1.87
  YS02001605           JUNCTION     0.50     1.78     8.68     0  01:56        1.78
  YS02001607           JUNCTION     0.49     1.68     8.53     0  02:30        1.68
  YS02001610           JUNCTION     0.54     1.68     8.48     0  01:49        1.68
  YS02001613           JUNCTION     0.49     1.67     8.51     0  02:29        1.67
  YS02001616           JUNCTION     0.42     1.61     8.52     0  01:53        1.61
  YS02001619           JUNCTION     0.40     1.61     8.54     0  01:53        1.61
  YS02001622           JUNCTION     0.39     1.61     8.51     0  01:53        1.61
  YS02001625           JUNCTION     0.66     1.78     8.38     0  01:49        1.78
  YS02001629           JUNCTION     0.52     1.85     8.40     0  01:49        1.85
  YS02001633           JUNCTION     0.60     2.08     8.53     0  02:00        2.08
  YS02001641           JUNCTION     0.59     1.97     8.41     0  01:53        1.95
  YS02001644           JUNCTION     0.59     1.92     8.35     0  01:52        1.92
  YS02001647           JUNCTION     0.38     1.79     8.40     0  02:00        1.79
  YS02001649           JUNCTION     0.43     2.05     8.44     0  01:59        2.05
  YS02001652           JUNCTION     0.33     1.98     8.58     0  02:00        1.98
  YS02001655           JUNCTION     0.26     1.87     8.72     0  02:00        1.86
  YS02001658           JUNCTION     0.20     1.71     8.85     0  02:01        1.69
  YS02001661           JUNCTION     0.20     1.57     8.98     0  02:00        1.56
  YS02001664           JUNCTION     0.08     1.19     9.11     0  02:00        1.18
  YS02001745           JUNCTION     0.11     1.13     8.65     0  02:00        1.12
  YS02001748           JUNCTION     0.19     1.62     8.70     0  01:53        1.50
  YS02001751           JUNCTION     0.23     1.66     8.54     0  02:00        1.66
  YS02001754           JUNCTION     0.30     1.88     8.49     0  02:00        1.87
  YS02001757           JUNCTION     0.48     2.16     8.42     0  02:00        2.16
  YS02001759           JUNCTION     0.41     2.16     8.52     0  02:00        2.14
  YS02001762           JUNCTION     0.40     2.10     8.50     0  02:00        2.10
  YS02001765           JUNCTION     0.37     2.04     8.49     0  02:00        2.04
  YS02001767           JUNCTION     0.37     2.02     8.51     0  01:53        2.02
  YS02001770           JUNCTION     0.38     1.95     8.44     0  01:50        1.95
  YS02001774           JUNCTION     0.44     2.00     8.42     0  02:00        2.00
  YS02001779           JUNCTION     0.28     1.68     8.37     0  01:50        1.68
  YS02001783           JUNCTION     0.27     1.28     7.42     0  02:00        1.26
  YS02001784           JUNCTION     0.28     1.15     7.22     0  02:00        1.14
  YS02001786           JUNCTION     0.23     0.90     6.93     0  02:00        0.89
  YS02001788           JUNCTION     0.17     0.63     6.61     0  02:00        0.63
  YS02001790           JUNCTION     0.20     0.74     6.38     0  02:00        0.72
  YS02001791           JUNCTION     0.12     0.45     5.92     0  02:00        0.44
  YS02001793           JUNCTION     0.07     0.31     5.15     0  02:01        0.31
  YS02001882           JUNCTION     0.34     1.74     8.46     0  02:01        1.74
  YS02001884           JUNCTION     0.44     1.83     8.45     0  02:01        1.83
  YS02001887           JUNCTION     0.51     1.91     8.45     0  02:01        1.91
  YS02001890           JUNCTION     0.54     1.81     8.32     0  01:51        1.81
  YS02001895           JUNCTION     0.31     1.57     8.32     0  01:53        1.57
  YS02001898           JUNCTION     0.32     1.61     8.35     0  01:53        1.61
  YS02001901           JUNCTION     0.44     1.68     8.29     0  01:51        1.67
  YS02001904           JUNCTION     0.41     1.68     8.31     0  01:53        1.68
  YS02001907           JUNCTION     0.74     1.96     8.25     0  01:51        1.96
  YS02001910           JUNCTION     0.54     2.01     8.52     0  02:01        2.01
  YS02001915           JUNCTION     0.35     2.00     8.72     0  01:59        2.00
  YS02001918           JUNCTION     0.21     1.81     8.88     0  01:52        1.73
  YS02001920           JUNCTION     0.28     2.07     9.07     0  01:52        1.82
  YS02001923           JUNCTION     0.16     1.95     9.21     0  01:52        1.61
  YS02001926           JUNCTION     0.19     1.83     9.28     0  01:52        1.46
  YS02001929           JUNCTION     0.12     1.78     9.47     0  01:52        1.78
  YS02006553           JUNCTION     0.74     2.00     8.29     0  01:53        2.00
  YS02006556           JUNCTION     0.71     2.03     8.34     0  02:00        2.01
  YS02006558           JUNCTION     0.76     2.10     8.37     0  02:00        2.09
  YS02006561           JUNCTION     0.17     0.96     7.62     0  02:00        0.95
  YS02163301           JUNCTION     0.55     1.95     8.47     0  02:00        1.95
  YS02163601           JUNCTION     0.64     2.06     8.46     0  02:02        2.06
  YS02164001           JUNCTION     0.58     2.00     8.46     0  02:30        2.00
  CC-1                 OUTFALL      0.00     0.00     0.00     0  00:00        0.00
  CC-2                 OUTFALL      0.00     0.00     0.00     0  00:00        0.00
  JK-1                 OUTFALL      0.00     0.00     0.00     0  00:00        0.00
  JK-2                 OUTFALL      0.00     0.00     0.00     0  00:00        0.00
  WSC                  OUTFALL      0.19     0.30     0.97     0  03:20        0.30
  CC-storage           STORAGE      1.07     1.98     7.48     0  02:34        1.98
  JK-storage           STORAGE      3.24     4.24     5.04     0  02:10        4.18
  
  
  *******************
  Node Inflow Summary
  *******************
  
  -------------------------------------------------------------------------------------------------
                                  Maximum  Maximum                  Lateral       Total        Flow
                                  Lateral    Total  Time of Max      Inflow      Inflow     Balance
                                   Inflow   Inflow   Occurrence      Volume      Volume       Error
  Node                 Type           LPS      LPS  days hr:min    10^6 ltr    10^6 ltr     Percent
  -------------------------------------------------------------------------------------------------
  WS02003060           JUNCTION     16.53   554.08     0  03:18       0.476        5.87       0.038
  WS02003066           JUNCTION      0.00   537.14     0  03:17           0         5.4       0.025
  WS02003067           JUNCTION      0.00   537.03     0  03:17           0         5.4       0.078
  WS02003069           JUNCTION      0.32   554.11     0  03:18     0.00922        5.88       0.068
  WS02003072           JUNCTION      0.00   553.54     0  03:19           0        5.87       0.122
  WS02003073           JUNCTION      1.82   554.95     0  03:19      0.0524        5.92       0.099
  WS02004401           JUNCTION      0.00   538.29     0  02:08           0         5.5       0.183
  WS02004402           JUNCTION      0.00   538.11     0  02:08           0        5.49       0.186
  WS02004403           JUNCTION      0.00   539.57     0  02:07           0        5.48       0.180
  WS02004404           JUNCTION      0.16   566.40     0  02:15     0.00467        5.47       0.150
  WS02004405           JUNCTION      0.04   606.44     0  02:13      0.0011        5.46       0.150
  WS02004406           JUNCTION      0.00   544.08     0  02:15           0        5.46       0.376
  WS02004407           JUNCTION      0.00   540.26     0  03:15           0        5.43       0.020
  WS02004409           JUNCTION      0.00   539.50     0  03:16           0        5.43       0.048
  WS02004410           JUNCTION      0.00   538.55     0  03:16           0        5.43       0.080
  WS02004411           JUNCTION      0.00   538.16     0  03:16           0        5.43       0.102
  WS02004412           JUNCTION      0.00   537.67     0  03:16           0        5.42       0.137
  WS02004413           JUNCTION      0.00   537.51     0  03:17           0        5.41       0.244
  WS02006109           JUNCTION      1.23   560.98     0  01:51      0.0354        5.54       0.158
  WS02006110           JUNCTION      0.00   562.95     0  01:51           0        5.53       0.111
  WS02006111           JUNCTION      0.00   561.96     0  02:42           0        5.53       0.014
  WS02006112           JUNCTION      0.00   544.45     0  01:53           0        5.52       0.313
  WS02006113           JUNCTION      0.00   574.21     0  01:52           0        5.53       0.029
  WS02006115           JUNCTION      0.00   552.29     0  02:30           0        5.51       0.117
  WS02006116           JUNCTION      0.00   539.20     0  02:10           0         5.5       0.096
  WS02006228           JUNCTION      0.00   559.62     0  01:51           0        5.51       0.069
  WS02006229           JUNCTION      0.00   558.44     0  01:51           0        5.51       0.086
  WS02006230           JUNCTION     10.28   591.57     0  02:10       0.296        5.52       0.077
  WS02006231           JUNCTION      0.00   582.55     0  01:51           0        5.22      -0.070
  WS02006232           JUNCTION      0.00   581.56     0  01:51           0        5.23       0.184
  WS02006234           JUNCTION      0.00   576.18     0  01:51           0        5.22      -0.145
  WS02006235           JUNCTION      0.00   568.22     0  01:51           0        5.27       0.120
  WS02006238           JUNCTION      0.00   423.44     0  02:45           0         4.4      -0.123
  WS02006239           JUNCTION      0.00   422.91     0  02:30           0        4.38      -0.080
  WS02006240           JUNCTION      0.00   420.67     0  01:50           0        4.35      -0.030
  WS02006242           JUNCTION      0.00   420.81     0  01:50           0        4.34      -0.062
  WS02006243           JUNCTION      0.00   419.91     0  01:50           0        4.33       0.020
  WS02006245           JUNCTION      0.00   419.83     0  01:50           0        4.34       0.224
  WS02006247           JUNCTION      0.00   420.69     0  02:30           0        4.34       0.019
  WS02006248           JUNCTION      0.00   421.12     0  02:30           0        4.34       0.054
  WS02006249           JUNCTION      0.00   459.02     0  00:00           0        4.56       0.192
  WS02006251           JUNCTION      0.08   406.17     0  02:23     0.00222        4.56      -0.020
  WS02006252           JUNCTION      0.00   400.00     0  00:00           0        4.56      -0.025
  WS02006256           JUNCTION      0.00   300.00     0  00:00           0        1.31      -0.922
  WSF200               JUNCTION      0.00   537.24     0  03:17           0        5.39       0.009
  YS02001580           JUNCTION      0.00    74.57     0  01:46           0       0.004      -0.527
  YS02001583           JUNCTION      0.00   128.29     0  01:46           0      0.0153      -4.820
  YS02001586           JUNCTION   1348.34  1348.37     0  02:03        2.85        2.86       0.037
  YS02001590           JUNCTION      0.00   318.91     0  02:29           0        1.72      -0.016
  YS02001593           JUNCTION      0.00   318.45     0  02:29           0        1.72       0.004
  YS02001596           JUNCTION      0.00   318.17     0  02:16           0        1.72      -0.009
  YS02001600           JUNCTION      0.00   318.06     0  02:30           0        1.72       0.011
  YS02001601           JUNCTION   2364.61  2682.07     0  02:02        3.83        5.54       0.017
  YS02001602           JUNCTION      0.00   503.54     0  01:45           0        2.72       0.018
  YS02001605           JUNCTION      0.00   503.91     0  01:45           0        2.52       0.024
  YS02001607           JUNCTION      0.00   503.21     0  01:45           0        2.52       0.079
  YS02001610           JUNCTION      0.00   953.88     0  02:10           0        3.25       0.075
  YS02001613           JUNCTION      0.00   618.10     0  02:05           0        2.46       0.061
  YS02001616           JUNCTION      0.00   617.88     0  02:10           0        2.46       0.017
  YS02001619           JUNCTION   2407.28  2407.28     0  02:03        4.58        6.31       0.002
  YS02001622           JUNCTION      0.00  1053.96     0  02:10           0        5.26       0.002
  YS02001625           JUNCTION      0.00  1505.43     0  02:08           0        5.81       0.187
  YS02001629           JUNCTION      0.00   975.92     0  02:02           0        4.02       0.000
  YS02001633           JUNCTION   1780.63  1780.63     0  02:02        2.82        6.05       0.058
  YS02001641           JUNCTION      0.00  1299.22     0  01:49           0        5.28       0.057
  YS02001644           JUNCTION   1591.42  3130.35     0  02:02        2.45        7.95       0.041
  YS02001647           JUNCTION      0.00  1658.17     0  01:49           0        6.12       0.007
  YS02001649           JUNCTION      0.00  1824.85     0  01:48           0        8.15       0.002
  YS02001652           JUNCTION      0.00  1553.69     0  02:01           0        2.27      -0.055
  YS02001655           JUNCTION      0.15  1553.13     0  02:01     0.00443        2.27      -0.016
  YS02001658           JUNCTION      0.00  1553.27     0  02:01           0        2.26      -0.037
  YS02001661           JUNCTION      0.00  1553.12     0  02:01           0        2.26      -0.005
  YS02001664           JUNCTION   1552.64  1552.64     0  02:02        2.26        2.26      -0.009
  YS02001745           JUNCTION    978.53   978.53     0  02:01        1.35        1.35       0.103
  YS02001748           JUNCTION      0.04   980.92     0  02:01      0.0013        1.35      -0.178
  YS02001751           JUNCTION      0.01   982.60     0  02:01    0.000317        1.35       0.064
  YS02001754           JUNCTION      0.26   984.57     0  02:01     0.00749        1.37      -0.107
  YS02001757           JUNCTION      0.00  3116.95     0  02:00           0        12.9       0.010
  YS02001759           JUNCTION   1362.30  1367.06     0  01:59        1.87        3.64      -0.009
  YS02001762           JUNCTION      0.00   694.88     0  01:54           0        1.78       0.011
  YS02001765           JUNCTION      0.00   695.02     0  01:54           0        1.78       0.005
  YS02001767           JUNCTION      0.54   695.73     0  01:54      0.0154        1.78      -0.001
  YS02001770           JUNCTION   1924.13  2028.04     0  02:02        2.83        2.89      -0.020
  YS02001774           JUNCTION      0.00   852.10     0  02:06           0       0.797       0.172
  YS02001779           JUNCTION      0.01   851.76     0  02:07    0.000144        0.75      -0.085
  YS02001783           JUNCTION      0.00  1189.45     0  02:01           0        5.21       0.003
  YS02001784           JUNCTION      1.06  1189.95     0  02:01      0.0305        5.24       0.010
  YS02001786           JUNCTION      0.06  1189.81     0  02:01     0.00162        5.24       0.014
  YS02001788           JUNCTION      0.07  1191.44     0  02:01     0.00204        5.24       0.006
  YS02001790           JUNCTION      0.15  1196.66     0  02:00     0.00446        5.25       0.022
  YS02001791           JUNCTION      0.00  1312.36     0  02:00           0        5.25      -0.034
  YS02001793           JUNCTION      0.00  1291.88     0  02:00           0        5.25       0.003
  YS02001882           JUNCTION      0.00    33.47     0  01:48           0      0.0132       5.888
  YS02001884           JUNCTION      0.00    54.71     0  01:48           0      0.0498       5.521
  YS02001887           JUNCTION   1470.89  1473.04     0  02:01        1.93        1.96       0.227
  YS02001890           JUNCTION      0.00  1473.84     0  02:01           0        1.92       0.265
  YS02001895           JUNCTION      0.00   518.40     0  02:08           0        1.48       0.124
  YS02001898           JUNCTION      0.00   517.76     0  02:10           0        1.48       0.023
  YS02001901           JUNCTION      0.00   517.84     0  02:07           0        1.48       0.220
  YS02001904           JUNCTION      0.00   517.93     0  02:08           0        1.49       0.202
  YS02001907           JUNCTION      0.00  3296.20     0  02:02           0        5.79       0.314
  YS02001910           JUNCTION      0.00  1993.20     0  02:03           0        4.04       0.175
  YS02001915           JUNCTION   1715.19  2550.85     0  02:02        2.69        4.22       0.038
  YS02001918           JUNCTION      0.00   837.27     0  02:02           0        1.55       0.002
  YS02001920           JUNCTION      2.87   837.64     0  02:02      0.0827        1.54       0.071
  YS02001923           JUNCTION      0.04   834.82     0  02:02     0.00109        1.44      -0.016
  YS02001926           JUNCTION      0.05   834.42     0  02:02      0.0015        1.42      -0.014
  YS02001929           JUNCTION    833.74   833.74     0  02:03        1.42        1.42      -0.067
  YS02006553           JUNCTION      0.00   799.11     0  02:27           0        2.97       0.401
  YS02006556           JUNCTION      0.00   798.16     0  02:27           0        2.98       0.275
  YS02006558           JUNCTION   1968.58  1968.58     0  02:02        2.84        5.51       0.059
  YS02006561           JUNCTION      0.00  1189.09     0  02:01           0        5.21       0.001
  YS02163301           JUNCTION      0.00   974.59     0  02:02           0        4.02       0.047
  YS02163601           JUNCTION      0.11  1301.61     0  01:49     0.00317        5.27       0.097
  YS02164001           JUNCTION      0.00  1301.54     0  01:49           0        5.27       0.044
  CC-1                 OUTFALL       0.00   683.00     0  00:00           0         4.5       0.000
  CC-2                 OUTFALL       0.00   683.00     0  00:00           0        3.87       0.000
  JK-1                 OUTFALL       0.00  1000.00     0  00:00           0        2.27       0.000
  JK-2                 OUTFALL       0.00  1000.00     0  00:00           0        1.65       0.000
  WSC                  OUTFALL       0.00   554.48     0  03:20           0        5.91       0.000
  CC-storage           STORAGE       0.00  3115.05     0  02:00           0        15.1      -0.055
  JK-storage           STORAGE       0.00  1247.28     0  02:02           0         5.4       0.059
  
  
  **********************
  Node Surcharge Summary
  **********************
  
  Surcharging occurs when water rises above the top of the highest conduit.
  ---------------------------------------------------------------------
                                               Max. Height   Min. Depth
                                   Hours       Above Crown    Below Rim
  Node                 Type      Surcharged         Meters       Meters
  ---------------------------------------------------------------------
  WS02004404           JUNCTION        0.02          0.057        2.723
  WS02006109           JUNCTION        2.39          0.496        1.324
  WS02006110           JUNCTION        0.64          0.489        1.361
  WS02006112           JUNCTION        0.93          0.096        1.584
  WS02006228           JUNCTION        2.39          0.430        1.770
  WS02006229           JUNCTION        2.40          0.506        1.944
  WS02006230           JUNCTION        0.67          0.463        1.107
  WS02006231           JUNCTION        0.88          0.690        0.840
  WS02006232           JUNCTION        2.41          0.801        0.679
  WS02006234           JUNCTION        1.31          1.240        0.000
  WS02006235           JUNCTION        2.34          1.115        0.175
  WS02006238           JUNCTION        2.39          1.165        0.265
  WS02006239           JUNCTION        2.36          1.021        0.269
  WS02006240           JUNCTION        2.39          1.024        0.366
  WS02006242           JUNCTION        2.40          0.820        0.000
  WS02006243           JUNCTION        2.38          0.770        0.000
  WS02006245           JUNCTION        2.38          0.850        0.000
  WS02006247           JUNCTION        2.38          0.760        0.000
  WS02006248           JUNCTION        2.37          0.380        0.000
  WS02006249           JUNCTION        2.37          0.390        0.000
  WS02006251           JUNCTION        0.98          0.566        0.614
  WS02006252           JUNCTION        2.52          1.100        0.000
  WS02006256           JUNCTION        5.27          2.050        0.000
  YS02001580           JUNCTION        0.97          0.450        0.000
  YS02001583           JUNCTION        0.97          0.500        0.000
  YS02001586           JUNCTION        1.15          0.510        0.000
  YS02001590           JUNCTION        1.25          0.727        0.023
  YS02001593           JUNCTION        1.26          0.683        0.157
  YS02001596           JUNCTION        1.38          0.935        0.135
  YS02001600           JUNCTION        1.51          1.190        0.000
  YS02001601           JUNCTION        1.79          1.440        0.000
  YS02001602           JUNCTION        1.70          1.270        0.000
  YS02001605           JUNCTION        1.66          1.180        0.000
  YS02001607           JUNCTION        1.27          0.680        0.000
  YS02001610           JUNCTION        1.30          0.680        0.000
  YS02001613           JUNCTION        1.27          0.672        0.028
  YS02001616           JUNCTION        1.23          0.610        0.000
  YS02001619           JUNCTION        1.21          0.610        0.000
  YS02001622           JUNCTION        1.21          0.608        0.012
  YS02001625           JUNCTION        1.38          0.780        0.000
  YS02001629           JUNCTION        1.15          0.470        0.000
  YS02001633           JUNCTION        1.42          1.060        0.000
  YS02001641           JUNCTION        1.38          0.969        0.131
  YS02001644           JUNCTION        1.35          0.920        0.000
  YS02001647           JUNCTION        1.18          0.791        0.109
  YS02001649           JUNCTION        1.29          1.050        0.000
  YS02001652           JUNCTION        1.11          0.951        0.179
  YS02001655           JUNCTION        0.91          0.866        0.334
  YS02001658           JUNCTION        0.53          0.707        0.593
  YS02001661           JUNCTION        0.20          0.501        0.889
  YS02001664           JUNCTION        0.05          0.187        1.123
  YS02001745           JUNCTION        0.06          0.134        1.216
  YS02001748           JUNCTION        0.43          0.544        0.646
  YS02001751           JUNCTION        0.77          0.662        0.538
  YS02001754           JUNCTION        1.04          0.835        0.315
  YS02001757           JUNCTION        1.36          1.162        0.048
  YS02001759           JUNCTION        1.28          1.160        0.050
  YS02001762           JUNCTION        1.26          1.105        0.045
  YS02001765           JUNCTION        1.22          1.044        0.056
  YS02001767           JUNCTION        1.20          1.016        0.014
  YS02001770           JUNCTION        1.17          0.920        0.000
  YS02001774           JUNCTION        1.24          1.002        0.048
  YS02001779           JUNCTION        1.02          0.680        0.000
  YS02001783           JUNCTION        0.80          0.480        1.120
  YS02001784           JUNCTION        0.77          0.350        1.140
  YS02001786           JUNCTION        0.64          0.098        1.332
  YS02001882           JUNCTION        0.73          0.739        0.091
  YS02001884           JUNCTION        0.74          0.773        0.097
  YS02001887           JUNCTION        0.79          0.865        0.085
  YS02001890           JUNCTION        0.80          0.760        0.000
  YS02001895           JUNCTION        0.72          0.574        0.176
  YS02001898           JUNCTION        0.71          0.584        0.156
  YS02001901           JUNCTION        0.77          0.685        0.185
  YS02001904           JUNCTION        0.76          0.677        0.173
  YS02001907           JUNCTION        1.07          0.950        0.000
  YS02001910           JUNCTION        0.84          1.014        0.086
  YS02001915           JUNCTION        0.73          1.000        0.000
  YS02001918           JUNCTION        0.62          0.810        0.000
  YS02001920           JUNCTION        0.64          1.066        0.074
  YS02001923           JUNCTION        0.28          0.738        0.082
  YS02001926           JUNCTION        0.32          0.831        0.069
  YS02001929           JUNCTION        0.17          0.780        0.000
  YS02006553           JUNCTION        1.10          1.003        0.187
  YS02006556           JUNCTION        0.95          0.988        0.362
  YS02006558           JUNCTION        0.94          1.003        0.397
  YS02006561           JUNCTION        0.59          0.163        0.987
  YS02163301           JUNCTION        1.40          0.950        0.080
  YS02163601           JUNCTION        1.45          1.063        0.017
  YS02164001           JUNCTION        1.38          0.999        0.101
  
  
  *********************
  Node Flooding Summary
  *********************
  
  Flooding refers to all water that overflows a node, whether it ponds or not.
  --------------------------------------------------------------------------
                                                             Total   Maximum
                                 Maximum   Time of Max       Flood    Ponded
                        Hours       Rate    Occurrence      Volume     Depth
  Node                 Flooded       LPS   days hr:min    10^6 ltr    Meters
  --------------------------------------------------------------------------
  WS02006234              0.01     86.15      0  01:55       0.000     0.000
  WS02006242              0.01     18.72      0  01:55       0.000     0.000
  WS02006243              0.01      1.19      0  02:29       0.000     0.000
  WS02006245              0.01      0.84      0  02:29       0.000     0.000
  WS02006247              0.01      1.01      0  02:29       0.000     0.000
  WS02006248              0.02     17.75      0  01:55       0.001     0.000
  WS02006249              0.93    101.66      0  01:48       0.218     0.000
  WS02006252              0.01    245.63      0  00:00       0.000     0.000
  WS02006256              1.21    293.19      0  00:00       0.424     0.000
  YS02001580              0.01      7.94      0  01:46       0.000     0.000
  YS02001583              0.01    101.10      0  01:46       0.000     0.000
  YS02001586              0.79   1030.78      0  02:03       1.131     0.000
  YS02001600              0.01      0.18      0  02:29       0.000     0.000
  YS02001601              1.07   2283.84      0  02:02       2.820     0.000
  YS02001602              0.96     62.20      0  01:53       0.200     0.000
  YS02001605              0.01      0.34      0  02:30       0.000     0.000
  YS02001607              0.01      0.50      0  02:30       0.000     0.000
  YS02001610              0.86    953.78      0  02:10       1.516     0.000
  YS02001616              0.08      3.19      0  02:29       0.000     0.000
  YS02001619              0.21    739.19      0  02:03       0.316     0.000
  YS02001625              0.85   1505.22      0  02:08       2.559     0.000
  YS02001629              0.30    527.28      0  02:02       0.236     0.000
  YS02001633              0.01      1.42      0  02:00       0.000     0.000
  YS02001644              0.44   3129.73      0  02:02       2.061     0.000
  YS02001649              0.02     35.67      0  02:01       0.001     0.000
  YS02001770              0.16   1177.39      0  02:02       0.354     0.000
  YS02001779              0.38    851.47      0  02:07       0.731     0.000
  YS02001890              0.33    957.13      0  02:01       0.436     0.000
  YS02001907              0.56   3295.84      0  02:02       3.092     0.000
  YS02001915              0.13    558.28      0  02:02       0.151     0.000
  YS02001918              0.01     77.55      0  01:52       0.000     0.000
  YS02001929              0.01    266.28      0  01:52       0.001     0.000
  
  
  **********************
  Storage Volume Summary
  **********************
  
  ------------------------------------------------------------------------------------------------
                         Average    Avg   Evap  Exfil     Maximum    Max    Time of Max    Maximum
                          Volume   Pcnt   Pcnt   Pcnt      Volume   Pcnt     Occurrence    Outflow
  Storage Unit           1000 m³   Full   Loss   Loss     1000 m³   Full    days hr:min        LPS
  ------------------------------------------------------------------------------------------------
  CC-storage               2.972   46.4    0.0    0.0       5.516   86.1       0  02:34    1783.53
  JK-storage               0.163   55.8    0.0    0.0       0.213   73.2       0  02:10    2300.00
  
  
  ***********************
  Outfall Loading Summary
  ***********************
  
  -----------------------------------------------------------
                         Flow       Avg       Max       Total
                         Freq      Flow      Flow      Volume
  Outfall Node           Pcnt       LPS       LPS    10^6 ltr
  -----------------------------------------------------------
  CC-1                  24.32    683.00    683.00       4.504
  CC-2                  21.25    683.00    683.00       3.871
  JK-1                   9.79   1000.00   1000.00       2.272
  JK-2                   6.61   1000.00   1000.00       1.648
  WSC                   99.96    262.75    554.48       5.913
  -----------------------------------------------------------
  System                32.39   3628.75   3920.44      18.209
  
  
  ********************
  Link Flow Summary
  ********************
  
  -----------------------------------------------------------------------------
                                 Maximum  Time of Max   Maximum    Max/    Max/
                                  |Flow|   Occurrence   |Veloc|    Full    Full
  Link                 Type          LPS  days hr:min     m/sec    Flow   Depth
  -----------------------------------------------------------------------------
  1                    CONDUIT    554.48     0  03:20      2.83    0.19    0.30
  WS02003060WS02003069 CONDUIT    553.79     0  03:18      1.64    0.22    0.34
  WS02003066WSF200     CONDUIT    537.24     0  03:17      2.85    0.09    0.22
  WS02003067WS02003066 CONDUIT    537.14     0  03:17      1.21    0.17    0.42
  WS02003069WS02003072 CONDUIT    553.54     0  03:19      1.37    0.27    0.39
  WS02003072WS02003073 CONDUIT    553.13     0  03:19      1.44    1.19    0.37
  WS02004401WS02004402 CONDUIT    538.11     0  02:08      0.98    0.65    0.89
  WS02004402WS02004403 CONDUIT    539.57     0  02:07      0.97    0.78    0.91
  WS02004403WS02004404 CONDUIT    566.24     0  02:15      0.92    0.41    0.96
  WS02004404WS02004405 CONDUIT    606.40     0  02:13      1.08    5.94    0.98
  WS02004405WS02004406 CONDUIT    544.08     0  02:15      0.99    1.07    0.96
  WS02004406WS02004407 CONDUIT    540.26     0  03:15      1.04    0.24    0.63
  WS02004407WS02004409 CONDUIT    539.50     0  03:16      1.55    0.19    0.48
  WS02004409WS02004410 CONDUIT    538.55     0  03:16      1.04    0.70    0.67
  WS02004410WS02004411 CONDUIT    538.16     0  03:16      0.95    0.74    0.69
  WS02004411WS02004412 CONDUIT    537.67     0  03:16      0.92    0.76    0.69
  WS02004412WS02004413 CONDUIT    537.51     0  03:17      0.82    0.36    0.78
  WS02004413WS02003067 CONDUIT    537.03     0  03:17      1.11    0.23    0.59
  WS02006109WS02006110 CONDUIT    562.95     0  01:51      1.12    1.08    1.00
  WS02006110WS02006113 CONDUIT    574.21     0  01:52      1.38    0.52    0.79
  WS02006111WS02006112 CONDUIT    544.45     0  01:53      1.81    0.26    0.67
  WS02006112WS02006115 CONDUIT    552.29     0  02:30      0.86    0.33    0.88
  WS02006113WS02006111 CONDUIT    561.96     0  02:42      2.47    0.67    0.46
  WS02006115WS02006116 CONDUIT    539.20     0  02:10      1.02    0.69    0.78
  WS02006116WS02004401 CONDUIT    538.29     0  02:08      0.98    0.74    0.86
  WS02006228WS02006109 CONDUIT    559.75     0  01:51      1.11    2.45    1.00
  WS02006229WS02006228 CONDUIT    559.62     0  01:51      1.14    1.85    1.00
  WS02006230WS02006229 CONDUIT    558.44     0  01:51      1.45   12.43    1.00
  WS02006231WS02006230 CONDUIT    581.29     0  02:10      1.57    8.82    1.00
  WS02006232WS02006231 CONDUIT    582.55     0  01:51      1.52    1.22    1.00
  WS02006234WS02006232 CONDUIT    581.56     0  01:51      1.51    1.18    1.00
  WS02006235WS02006234 CONDUIT    576.18     0  01:51      1.50    6.08    1.00
  WS02006238WS02006235 CONDUIT    425.11     0  01:50      1.56    0.95    1.00
  WS02006239WS02006238 CONDUIT    423.44     0  02:45      1.10    1.35    1.00
  WS02006240WS02006239 CONDUIT    422.91     0  02:30      1.24    1.33    1.00
  WS02006242WS02006240 CONDUIT    420.67     0  01:50      1.13    1.67    1.00
  WS02006243WS02006242 CONDUIT    420.81     0  01:50      1.40    0.90    1.00
  WS02006245WS02006243 CONDUIT    419.91     0  01:50      1.45    1.24    1.00
  WS02006247WS02006245 CONDUIT    419.83     0  01:50      1.43    3.33    1.00
  WS02006248WS02006247 CONDUIT    420.69     0  02:30      1.44    0.92    1.00
  WS02006249WS02006248 CONDUIT    421.12     0  02:30      1.36    2.31    1.00
  WS02006251WS02006249 CONDUIT    459.02     0  00:00      1.99    1.32    1.00
  WS02006252WS02006251 CONDUIT    406.09     0  02:23     24.61    1.49    1.00
  WS02006256WS02006235 CONDUIT    289.21     0  01:37      4.23    3.06    1.00
  WSF200WS02003060     CONDUIT    537.55     0  03:18      2.07    0.12    0.28
  YS02001580YS02001583 CONDUIT     74.57     0  01:46      0.55    0.29    1.00
  YS02001583YS02001586 CONDUIT    128.29     0  01:46      0.54    0.19    1.00
  YS02001586YS02001590 CONDUIT    318.91     0  02:29      1.24    0.56    1.00
  YS02001590YS02001593 CONDUIT    318.45     0  02:29      1.13    2.00    1.00
  YS02001593YS02001596 CONDUIT    318.17     0  02:16      1.70    0.50    1.00
  YS02001596YS02001600 CONDUIT    318.06     0  02:30      1.26    0.62    1.00
  YS02001600YS02001601 CONDUIT    318.09     0  02:29      1.13    0.55    1.00
  YS02001601YS02001602 CONDUIT    503.54     0  01:45      1.78    1.82    1.00
  YS02001602YS02001605 CONDUIT    503.91     0  01:45      1.78   10.66    1.00
  YS02001605YS02001607 CONDUIT    503.21     0  01:45      1.78    2.76    1.00
  YS02001607YS02001610 CONDUIT    500.77     0  01:45      0.64    0.48    1.00
  YS02001610YS02001613 CONDUIT    617.97     0  02:05      0.79    0.71    1.00
  YS02001613YS02001616 CONDUIT    618.10     0  02:05      0.79    0.53    1.00
  YS02001616YS02001619 CONDUIT    617.88     0  02:10      0.79    1.07    1.00
  YS02001619YS02001622 CONDUIT   1053.96     0  02:10      1.34    1.55    1.00
  YS02001622YS02001625 CONDUIT   1053.73     0  02:05      1.34    0.56    1.00
  YS02001625YS02001629 CONDUIT    910.02     0  01:49      1.16    0.43    1.00
  YS02001629YS02163301 CONDUIT    975.92     0  02:02      1.24    1.20    1.00
  YS02001633YS02163601 CONDUIT   1301.50     0  01:49      1.66    1.37    1.00
  YS02001641YS02001644 CONDUIT   1299.49     0  01:49      1.65    4.20    1.00
  YS02001644YS02001647 CONDUIT   1658.17     0  01:49      2.15    0.97    1.00
  YS02001647YS02001649 CONDUIT   1670.39     0  01:49      2.28    0.88    1.00
  YS02001649YS02001757 CONDUIT   1796.96     0  01:48      2.36    1.09    1.00
  YS02001652YS02001649 CONDUIT   1553.98     0  02:01      1.98    0.77    1.00
  YS02001655YS02001652 CONDUIT   1553.69     0  02:01      1.98    0.75    1.00
  YS02001658YS02001655 CONDUIT   1552.98     0  02:01      1.98    0.66    1.00
  YS02001661YS02001658 CONDUIT   1553.27     0  02:01      2.20    0.61    1.00
  YS02001664YS02001661 CONDUIT   1553.12     0  02:01      2.12    0.49    1.00
  YS02001745YS02001748 CONDUIT    980.88     0  02:01      2.04    0.38    1.00
  YS02001748YS02001751 CONDUIT    982.59     0  02:01      1.61    0.50    1.00
  YS02001751YS02001754 CONDUIT    984.31     0  02:01      1.43    0.47    1.00
  YS02001754YS02001757 CONDUIT    986.07     0  02:01      1.26    0.40    1.00
  YS02001757CaochengTiaoxuchi CONDUIT   3115.05     0  02:00      3.97    1.35    1.00
  YS02001759YS02001757 CONDUIT   1366.84     0  01:59      1.74    0.97    1.00
  YS02001762YS02001759 CONDUIT    694.85     0  01:54      0.88    0.80    1.00
  YS02001765YS02001762 CONDUIT    694.88     0  01:54      0.88    0.65    1.00
  YS02001767YS02001765 CONDUIT    695.02     0  01:54      0.88    0.87    1.00
  YS02001770YS02001767 CONDUIT    695.20     0  01:54      0.89    2.75    1.00
  YS02001774YS02001770 CONDUIT    852.10     0  02:06      1.08    0.54    1.00
  YS02001779YS02001774 CONDUIT    851.75     0  02:07      1.08    0.43    1.00
  YS02001783YS02001784 CONDUIT   1188.89     0  02:01      2.37    1.64    1.00
  YS02001784YS02001785 CONDUIT   1189.75     0  02:01      2.37    2.77    1.00
  YS02001786YS02001788 CONDUIT   1191.36     0  02:01      2.52    2.30    0.90
  YS02001788YS02001790 CONDUIT   1196.51     0  02:00      2.73    0.88    0.86
  YS02001790YS02001791 CONDUIT   1312.36     0  02:00      3.44    1.43    0.71
  YS02001791YS02001793 CONDUIT   1291.88     0  02:00      6.44    0.55    0.46
  YS02001793JiankangQianchi CONDUIT   1247.28     0  02:02      2.38    0.10    0.66
  YS02001882YS02001884 CONDUIT     33.47     0  01:48      0.17    0.04    1.00
  YS02001884YS02001887 CONDUIT     54.71     0  01:48      0.13    0.07    1.00
  YS02001887YS02001890 CONDUIT   1473.84     0  02:01      1.88    2.52    1.00
  YS02001890YS02001895 CONDUIT    518.40     0  02:08      0.66    0.24    1.00
  YS02001895YS02001898 CONDUIT    517.76     0  02:10      0.66    0.90    1.00
  YS02001898YS02001901 CONDUIT    517.84     0  02:07      0.66    0.33    1.00
  YS02001901YS02001904 CONDUIT    517.93     0  02:08      0.66    0.80    1.00
  YS02001904YS02001907 CONDUIT    518.16     0  02:10      0.66    0.18    1.00
  YS02001907YS02006553 CONDUIT    799.11     0  02:27      0.89    0.94    1.00
  YS02001910YS02001907 CONDUIT   1992.99     0  02:01      2.54    1.12    1.00
  YS02001915YS02001910 CONDUIT   1993.20     0  02:03      2.54    0.99    1.00
  YS02001918YS02001915 CONDUIT    837.74     0  02:02      1.07    0.46    1.00
  YS02001920YS02001918 CONDUIT    837.27     0  02:02      1.07    0.81    1.00
  YS02001923YS02001920 CONDUIT    834.77     0  02:02      1.06    0.37    1.00
  YS02001926YS02001923 CONDUIT    834.79     0  02:02      1.06    1.19    1.00
  YS02001929YS02001926 CONDUIT    834.37     0  02:02      1.09    0.40    1.00
  YS02006553YS02006556 CONDUIT    798.16     0  02:27      1.02    0.68    1.00
  YS02006556YS02006558 CONDUIT    800.36     0  02:27      1.02    0.63    1.00
  YS02006558YS02006561 CONDUIT   1189.09     0  02:01      4.21    2.63    1.00
  YS02006561YS02001783 CONDUIT   1189.45     0  02:01      2.37    0.62    1.00
  YS02163301YS02001633 CONDUIT    974.59     0  02:02      1.24    0.92    1.00
  YS02163601YS02164001 CONDUIT   1301.54     0  01:49      1.66    1.15    1.00
  YS02164001YS02001641 CONDUIT   1299.22     0  01:49      1.65    1.77    1.00
  CC-R1                PUMP       683.00     0  00:00              1.00
  CC-R2                PUMP       683.00     0  00:00              1.00
  CC-S1                PUMP       200.00     0  00:00              1.00
  CC-S2                PUMP       200.00     0  00:00              1.00
  JK-R1                PUMP      1000.00     0  00:00              1.00
  JK-R2                PUMP      1000.00     0  00:00              1.00
  JK-S                 PUMP       300.00     0  00:00              1.00
  
  
  ***************************
  Flow Classification Summary
  ***************************
  
  -------------------------------------------------------------------------------------
                      Adjusted    ---------- Fraction of Time in Flow Class ---------- 
                       /Actual         Up    Down  Sub   Sup   Up    Down  Norm  Inlet 
  Conduit               Length    Dry  Dry   Dry   Crit  Crit  Crit  Crit  Ltd   Ctrl  
  -------------------------------------------------------------------------------------
  1                       1.00   0.00  0.00  0.00  0.00  1.00  0.00  0.00  0.47  0.00
  WS02003060WS02003069    1.00   0.00  0.00  0.00  0.98  0.02  0.00  0.00  0.65  0.00
  WS02003066WSF200        1.00   0.13  0.00  0.00  0.00  0.87  0.00  0.00  0.76  0.00
  WS02003067WS02003066    1.00   0.10  0.02  0.00  0.88  0.00  0.00  0.00  0.00  0.00
  WS02003069WS02003072    1.00   0.00  0.00  0.00  0.99  0.01  0.00  0.00  0.68  0.00
  WS02003072WS02003073    1.00   0.00  0.00  0.00  0.00  0.00  0.00  1.00  0.00  0.00
  WS02004401WS02004402    1.00   0.02  0.00  0.00  0.98  0.00  0.00  0.00  0.00  0.00
  WS02004402WS02004403    1.00   0.02  0.00  0.00  0.97  0.00  0.00  0.00  0.00  0.00
  WS02004403WS02004404    1.00   0.00  0.03  0.00  0.97  0.00  0.00  0.00  0.00  0.00
  WS02004404WS02004405    1.00   0.00  0.00  0.00  1.00  0.00  0.00  0.00  0.01  0.00
  WS02004405WS02004406    1.00   0.00  0.00  0.00  1.00  0.00  0.00  0.00  0.00  0.00
  WS02004406WS02004407    1.00   0.00  0.05  0.00  0.95  0.00  0.00  0.00  0.00  0.00
  WS02004407WS02004409    1.00   0.05  0.00  0.00  0.94  0.01  0.00  0.00  0.94  0.00
  WS02004409WS02004410    1.00   0.05  0.00  0.00  0.95  0.00  0.00  0.00  0.03  0.00
  WS02004410WS02004411    1.00   0.05  0.00  0.00  0.95  0.00  0.00  0.00  0.01  0.00
  WS02004411WS02004412    1.00   0.05  0.00  0.00  0.95  0.00  0.00  0.00  0.00  0.00
  WS02004412WS02004413    1.00   0.05  0.00  0.00  0.94  0.00  0.00  0.00  0.01  0.00
  WS02004413WS02003067    1.00   0.06  0.04  0.00  0.00  0.00  0.90  0.00  0.00  0.00
  WS02006109WS02006110    1.00   0.00  0.01  0.00  0.98  0.00  0.01  0.00  0.00  0.00
  WS02006110WS02006113    1.00   0.01  0.01  0.00  0.98  0.00  0.00  0.00  0.00  0.00
  WS02006111WS02006112    1.00   0.02  0.00  0.00  0.98  0.00  0.00  0.00  0.98  0.00
  WS02006112WS02006115    1.00   0.02  0.00  0.00  0.97  0.00  0.00  0.00  0.00  0.00
  WS02006113WS02006111    1.00   0.02  0.00  0.00  0.00  0.98  0.00  0.00  0.15  0.00
  WS02006115WS02006116    1.00   0.02  0.00  0.00  0.97  0.00  0.00  0.01  0.00  0.00
  WS02006116WS02004401    1.00   0.02  0.00  0.00  0.98  0.00  0.00  0.00  0.00  0.00
  WS02006228WS02006109    1.00   0.00  0.00  0.00  1.00  0.00  0.00  0.00  0.00  0.00
  WS02006229WS02006228    1.00   0.00  0.00  0.00  0.99  0.00  0.00  0.01  0.00  0.00
  WS02006230WS02006229    1.00   0.00  0.00  0.00  0.99  0.00  0.00  0.01  0.01  0.00
  WS02006231WS02006230    1.00   0.00  0.00  0.00  0.31  0.00  0.69  0.00  0.00  0.00
  WS02006232WS02006231    1.00   0.00  0.00  0.00  0.99  0.00  0.01  0.00  0.00  0.00
  WS02006234WS02006232    1.00   0.00  0.00  0.00  1.00  0.00  0.00  0.00  0.20  0.00
  WS02006235WS02006234    1.00   0.00  0.00  0.00  0.74  0.00  0.26  0.00  0.00  0.00
  WS02006238WS02006235    1.00   0.00  0.00  0.00  1.00  0.00  0.00  0.00  0.00  0.00
  WS02006239WS02006238    1.00   0.00  0.00  0.00  1.00  0.00  0.00  0.00  0.34  0.00
  WS02006240WS02006239    1.00   0.00  0.00  0.00  0.61  0.00  0.00  0.39  0.02  0.00
  WS02006242WS02006240    1.00   0.00  0.00  0.00  0.99  0.00  0.01  0.00  0.00  0.00
  WS02006243WS02006242    1.00   0.00  0.00  0.00  0.99  0.00  0.00  0.01  0.47  0.00
  WS02006245WS02006243    1.00   0.00  0.00  0.00  0.68  0.00  0.00  0.32  0.00  0.00
  WS02006247WS02006245    1.00   0.00  0.00  0.00  0.98  0.00  0.00  0.02  0.00  0.00
  WS02006248WS02006247    1.00   0.00  0.00  0.00  0.99  0.00  0.00  0.01  0.20  0.00
  WS02006249WS02006248    1.00   0.00  0.00  0.00  0.52  0.00  0.48  0.00  0.00  0.00
  WS02006251WS02006249    1.00   0.00  0.00  0.00  1.00  0.00  0.00  0.00  0.50  0.00
  WS02006252WS02006251    1.00   0.00  0.50  0.00  0.12  0.00  0.38  0.00  0.00  0.00
  WS02006256WS02006235    1.00   0.00  0.00  0.00  1.00  0.00  0.00  0.00  0.00  0.00
  WSF200WS02003060        1.00   0.00  0.13  0.00  0.30  0.58  0.00  0.00  0.46  0.00
  YS02001580YS02001583    1.00   0.22  0.54  0.00  0.25  0.00  0.00  0.00  0.63  0.00
  YS02001583YS02001586    1.00   0.40  0.30  0.00  0.30  0.00  0.00  0.00  0.63  0.00
  YS02001586YS02001590    1.00   0.13  0.00  0.00  0.46  0.04  0.00  0.37  0.34  0.00
  YS02001590YS02001593    1.00   0.13  0.01  0.00  0.17  0.00  0.70  0.00  0.00  0.00
  YS02001593YS02001596    1.00   0.13  0.00  0.00  0.19  0.01  0.00  0.67  0.02  0.00
  YS02001596YS02001600    1.00   0.13  0.00  0.00  0.24  0.01  0.00  0.62  0.04  0.00
  YS02001600YS02001601    1.00   0.13  0.01  0.00  0.86  0.00  0.00  0.00  0.58  0.00
  YS02001601YS02001602    1.00   0.13  0.01  0.00  0.87  0.00  0.00  0.00  0.00  0.00
  YS02001602YS02001605    1.00   0.13  0.00  0.00  0.87  0.00  0.00  0.00  0.00  0.00
  YS02001605YS02001607    1.00   0.13  0.00  0.00  0.87  0.00  0.00  0.00  0.00  0.00
  YS02001607YS02001610    1.00   0.13  0.00  0.00  0.86  0.00  0.00  0.00  0.01  0.00
  YS02001610YS02001613    1.00   0.13  0.00  0.00  0.87  0.00  0.00  0.00  0.00  0.00
  YS02001613YS02001616    1.00   0.13  0.00  0.00  0.87  0.00  0.00  0.00  0.00  0.00
  YS02001616YS02001619    1.00   0.13  0.00  0.00  0.87  0.00  0.00  0.00  0.00  0.00
  YS02001619YS02001622    1.00   0.13  0.00  0.00  0.87  0.00  0.00  0.00  0.27  0.00
  YS02001622YS02001625    1.00   0.13  0.00  0.00  0.87  0.00  0.00  0.00  0.03  0.00
  YS02001625YS02001629    1.00   0.13  0.04  0.00  0.22  0.00  0.62  0.00  0.00  0.00
  YS02001629YS02163301    1.00   0.14  0.01  0.00  0.85  0.00  0.00  0.00  0.00  0.00
  YS02001633YS02163601    1.00   0.00  0.01  0.00  0.99  0.00  0.00  0.00  0.14  0.00
  YS02001641YS02001644    1.00   0.00  0.01  0.00  0.99  0.00  0.00  0.00  0.00  0.00
  YS02001644YS02001647    1.00   0.00  0.16  0.00  0.84  0.00  0.00  0.00  0.00  0.00
  YS02001647YS02001649    1.00   0.00  0.16  0.00  0.64  0.20  0.00  0.00  0.58  0.00
  YS02001649YS02001757    1.00   0.00  0.00  0.00  0.89  0.11  0.00  0.00  0.41  0.00
  YS02001652YS02001649    1.00   0.00  0.00  0.00  0.97  0.03  0.00  0.00  0.67  0.00
  YS02001655YS02001652    1.00   0.00  0.00  0.00  0.25  0.01  0.00  0.74  0.05  0.00
  YS02001658YS02001655    1.00   0.00  0.14  0.00  0.72  0.14  0.00  0.00  0.61  0.00
  YS02001661YS02001658    1.00   0.14  0.00  0.00  0.56  0.30  0.00  0.00  0.63  0.00
  YS02001664YS02001661    1.00   0.13  0.00  0.00  0.80  0.07  0.00  0.00  0.82  0.00
  YS02001745YS02001748    1.00   0.00  0.00  0.00  0.17  0.00  0.00  0.83  0.04  0.00
  YS02001748YS02001751    1.00   0.00  0.00  0.00  0.88  0.12  0.00  0.00  0.72  0.00
  YS02001751YS02001754    1.00   0.00  0.00  0.00  0.23  0.00  0.00  0.76  0.03  0.00
  YS02001754YS02001757    1.00   0.00  0.00  0.00  1.00  0.00  0.00  0.00  0.73  0.00
  YS02001757CaochengTiaoxuchi    1.00   0.00  0.00  0.00  1.00  0.00  0.00  0.00  0.57  0.00
  YS02001759YS02001757    1.00   0.00  0.00  0.00  0.98  0.02  0.00  0.00  0.48  0.00
  YS02001762YS02001759    1.00   0.00  0.00  0.00  1.00  0.00  0.00  0.00  0.05  0.00
  YS02001765YS02001762    1.00   0.00  0.00  0.00  1.00  0.00  0.00  0.00  0.60  0.00
  YS02001767YS02001765    1.00   0.00  0.00  0.00  1.00  0.00  0.00  0.00  0.01  0.00
  YS02001770YS02001767    1.00   0.00  0.00  0.00  1.00  0.00  0.00  0.00  0.00  0.00
  YS02001774YS02001770    1.00   0.00  0.13  0.00  0.71  0.00  0.16  0.00  0.02  0.00
  YS02001779YS02001774    1.00   0.00  0.00  0.00  1.00  0.00  0.00  0.00  0.71  0.00
  YS02001783YS02001784    1.00   0.00  0.16  0.00  0.84  0.00  0.00  0.00  0.54  0.00
  YS02001784YS02001785    1.00   0.00  0.00  0.00  1.00  0.00  0.00  0.00  0.15  0.00
  YS02001786YS02001788    1.00   0.00  0.00  0.00  0.80  0.20  0.00  0.00  0.00  0.00
  YS02001788YS02001790    1.00   0.00  0.00  0.00  0.21  0.79  0.00  0.00  0.78  0.00
  YS02001790YS02001791    1.00   0.00  0.00  0.00  0.01  0.99  0.00  0.00  0.16  0.00
  YS02001791YS02001793    1.00   0.00  0.00  0.00  0.00  1.00  0.00  0.00  0.02  0.00
  YS02001793JiankangQianchi    1.00   0.00  0.00  0.00  0.99  0.01  0.00  0.00  0.91  0.00
  YS02001882YS02001884    1.00   0.14  0.01  0.00  0.85  0.00  0.00  0.00  0.00  0.00
  YS02001884YS02001887    1.00   0.06  0.05  0.00  0.89  0.00  0.00  0.00  0.00  0.00
  YS02001887YS02001890    1.00   0.00  0.00  0.00  0.97  0.00  0.03  0.00  0.00  0.00
  YS02001890YS02001895    1.00   0.00  0.15  0.00  0.85  0.00  0.00  0.00  0.00  0.00
  YS02001895YS02001898    1.00   0.15  0.00  0.00  0.83  0.00  0.01  0.00  0.00  0.00
  YS02001898YS02001901    1.00   0.15  0.00  0.00  0.85  0.00  0.00  0.00  0.01  0.00
  YS02001901YS02001904    1.00   0.15  0.00  0.00  0.85  0.00  0.00  0.00  0.00  0.00
  YS02001904YS02001907    1.00   0.00  0.15  0.00  0.85  0.00  0.00  0.00  0.00  0.00
  YS02001907YS02006553    1.00   0.00  0.02  0.00  0.98  0.00  0.00  0.00  0.00  0.00
  YS02001910YS02001907    1.00   0.00  0.00  0.00  0.97  0.00  0.00  0.03  0.12  0.00
  YS02001915YS02001910    1.00   0.00  0.00  0.00  0.97  0.03  0.00  0.00  0.13  0.00
  YS02001918YS02001915    1.00   0.00  0.01  0.00  0.98  0.02  0.00  0.00  0.70  0.00
  YS02001920YS02001918    1.00   0.00  0.01  0.00  0.99  0.00  0.00  0.00  0.00  0.00
  YS02001923YS02001920    1.00   0.00  0.00  0.00  1.00  0.00  0.00  0.00  0.89  0.00
  YS02001926YS02001923    1.00   0.00  0.07  0.00  0.09  0.00  0.83  0.00  0.00  0.00
  YS02001929YS02001926    1.00   0.00  0.13  0.00  0.87  0.00  0.00  0.00  0.79  0.00
  YS02006553YS02006556    1.00   0.01  0.00  0.00  0.99  0.00  0.00  0.00  0.03  0.00
  YS02006556YS02006558    1.00   0.00  0.00  0.00  1.00  0.00  0.00  0.00  0.00  0.00
  YS02006558YS02006561    1.00   0.16  0.00  0.00  0.09  0.75  0.00  0.00  0.17  0.00
  YS02006561YS02001783    1.00   0.16  0.00  0.00  0.13  0.71  0.00  0.00  0.65  0.00
  YS02163301YS02001633    1.00   0.00  0.14  0.00  0.86  0.00  0.00  0.00  0.00  0.00
  YS02163601YS02164001    1.00   0.00  0.08  0.00  0.92  0.00  0.00  0.00  0.00  0.00
  YS02164001YS02001641    1.00   0.01  0.07  0.00  0.92  0.00  0.00  0.00  0.05  0.00
  
  
  *************************
  Conduit Surcharge Summary
  *************************
  
  ----------------------------------------------------------------------------
                                                           Hours        Hours 
                         --------- Hours Full --------   Above Full   Capacity
  Conduit                Both Ends  Upstream  Dnstream   Normal Flow   Limited
  ----------------------------------------------------------------------------
  WS02003072WS02003073        0.01      0.01      0.01      1.37         0.01
  WS02004403WS02004404        0.01      0.01      0.01      0.01         0.01
  WS02004404WS02004405        0.01      0.01      0.01      3.80         0.01
  WS02004405WS02004406        0.01      0.01      0.01      0.65         0.01
  WS02006109WS02006110        0.64      0.64      2.42      0.84         0.01
  WS02006110WS02006113        0.01      0.01      2.41      0.01         0.01
  WS02006111WS02006112        0.01      0.01      2.55      0.01         0.01
  WS02006112WS02006115        0.01      0.01      0.93      0.01         0.01
  WS02006228WS02006109        2.39      2.41      2.39      2.70         2.39
  WS02006229WS02006228        2.39      2.40      2.39      2.50         2.37
  WS02006230WS02006229        2.43      2.47      2.43      4.39         2.43
  WS02006231WS02006230        0.67      0.67      0.95      4.16         0.01
  WS02006232WS02006231        0.88      0.88      2.41      0.96         0.01
  WS02006234WS02006232        2.32      2.32      2.41      0.95         0.93
  WS02006235WS02006234        1.30      1.31      2.33      3.97         0.03
  WS02006238WS02006235        2.35      2.35      2.41      0.01         0.01
  WS02006239WS02006238        2.39      2.41      2.39      2.43         2.17
  WS02006240WS02006239        2.36      2.39      2.36      2.43         2.06
  WS02006242WS02006240        2.39      2.39      2.41      2.53         0.01
  WS02006243WS02006242        2.38      2.38      2.40      0.01         0.07
  WS02006245WS02006243        2.38      2.38      2.38      1.69         1.68
  WS02006247WS02006245        2.38      2.38      2.38      3.77         2.36
  WS02006248WS02006247        2.37      2.37      2.38      0.01         0.08
  WS02006249WS02006248        2.37      2.37      2.37      3.75         0.01
  WS02006251WS02006249        2.37      2.37      2.37      2.46         2.27
  WS02006252WS02006251        2.51      2.51      2.52      2.51         0.01
  WS02006256WS02006235        3.98      4.03      5.23      1.21         0.01
  YS02001580YS02001583        0.96      0.97      1.04      0.01         0.01
  YS02001583YS02001586        0.98      0.98      1.15      0.01         0.01
  YS02001586YS02001590        1.16      1.16      1.25      0.01         0.01
  YS02001590YS02001593        1.26      1.26      1.28      1.27         0.01
  YS02001593YS02001596        1.27      1.27      1.38      0.01         0.01
  YS02001596YS02001600        1.43      1.43      1.51      0.01         0.01
  YS02001600YS02001601        1.56      1.56      1.79      0.01         0.01
  YS02001601YS02001602        1.70      1.70      1.82      1.50         0.01
  YS02001602YS02001605        1.66      1.66      1.70      2.51         0.01
  YS02001605YS02001607        1.63      1.66      1.63      1.72         1.60
  YS02001607YS02001610        1.27      1.27      1.30      0.01         0.01
  YS02001610YS02001613        1.27      1.27      1.30      0.01         0.01
  YS02001613YS02001616        1.23      1.23      1.27      0.01         0.01
  YS02001616YS02001619        1.21      1.21      1.23      0.20         0.16
  YS02001619YS02001622        1.21      1.21      1.21      1.18         1.07
  YS02001622YS02001625        1.21      1.21      1.38      0.01         0.01
  YS02001625YS02001629        1.15      1.15      1.38      0.01         0.01
  YS02001629YS02163301        1.38      1.38      1.40      0.16         0.10
  YS02001633YS02163601        1.42      1.42      1.45      0.11         0.16
  YS02001641YS02001644        1.35      1.38      1.35      1.85         1.31
  YS02001644YS02001647        1.18      1.18      1.35      0.01         0.01
  YS02001647YS02001649        1.18      1.18      1.29      0.01         0.01
  YS02001649YS02001757        1.28      1.29      1.36      0.07         0.04
  YS02001652YS02001649        1.14      1.14      1.29      0.01         0.01
  YS02001655YS02001652        0.91      0.91      1.11      0.01         0.01
  YS02001658YS02001655        0.53      0.53      0.91      0.01         0.01
  YS02001661YS02001658        0.20      0.20      0.53      0.01         0.01
  YS02001664YS02001661        0.05      0.05      0.26      0.01         0.01
  YS02001745YS02001748        0.06      0.06      0.43      0.01         0.01
  YS02001748YS02001751        0.50      0.50      0.77      0.01         0.01
  YS02001751YS02001754        0.77      0.77      1.04      0.01         0.01
  YS02001754YS02001757        1.09      1.09      1.36      0.01         0.01
  YS02001757CaochengTiaoxuchi        1.36      1.36      2.43      0.48         0.48
  YS02001759YS02001757        1.28      1.28      1.36      0.01         0.01
  YS02001762YS02001759        1.26      1.26      1.28      0.01         0.02
  YS02001765YS02001762        1.22      1.22      1.26      0.01         0.01
  YS02001767YS02001765        1.19      1.20      1.22      0.01         0.02
  YS02001770YS02001767        1.19      1.19      1.20      0.69         0.65
  YS02001774YS02001770        1.17      1.17      1.24      0.01         0.01
  YS02001779YS02001774        1.02      1.02      1.24      0.01         0.01
  YS02001783YS02001784        0.77      0.80      0.77      0.99         0.77
  YS02001784YS02001785        0.64      0.77      0.64      1.32         0.64
  YS02001786YS02001788        0.01      0.64      0.01      1.13         0.01
  YS02001790YS02001791        0.01      0.01      0.01      0.75         0.01
  YS02001793JiankangQianchi        0.01      0.01      7.70      0.01         0.01
  YS02001882YS02001884        0.73      0.73      0.74      0.01         0.01
  YS02001884YS02001887        0.77      0.77      0.79      0.01         0.01
  YS02001887YS02001890        0.80      0.80      0.82      0.25         0.01
  YS02001890YS02001895        0.72      0.72      0.84      0.01         0.01
  YS02001895YS02001898        0.71      0.71      0.72      0.01         0.01
  YS02001898YS02001901        0.72      0.72      0.77      0.01         0.01
  YS02001901YS02001904        0.76      0.76      0.77      0.01         0.01
  YS02001904YS02001907        0.76      0.76      1.10      0.01         0.01
  YS02001907YS02006553        1.34      1.34      1.42      0.01         0.01
  YS02001910YS02001907        0.84      0.84      1.07      0.16         0.16
  YS02001915YS02001910        0.73      0.73      0.84      0.01         0.01
  YS02001918YS02001915        0.62      0.62      0.73      0.01         0.01
  YS02001920YS02001918        0.62      0.62      0.64      0.01         0.01
  YS02001923YS02001920        0.57      0.57      0.64      0.01         0.01
  YS02001926YS02001923        0.28      0.28      0.32      0.11         0.01
  YS02001929YS02001926        0.17      0.17      0.32      0.01         0.01
  YS02006553YS02006556        0.95      0.95      1.10      0.01         0.01
  YS02006556YS02006558        1.03      1.03      1.13      0.01         0.01
  YS02006558YS02006561        0.66      0.94      0.66      1.25         0.66
  YS02006561YS02001783        0.59      0.59      0.80      0.01         0.01
  YS02163301YS02001633        1.40      1.40      1.44      0.01         0.01
  YS02163601YS02164001        1.38      1.38      1.45      0.08         0.01
  YS02164001YS02001641        1.37      1.38      1.38      0.84         0.76
  
  
  ***************
  Pumping Summary
  ***************
  
  ---------------------------------------------------------------------------------------------------------
                                                  Min       Avg       Max     Total     Power    % Time Off
                        Percent   Number of      Flow      Flow      Flow    Volume     Usage    Pump Curve
  Pump                 Utilized   Start-Ups       LPS       LPS       LPS  10^6 ltr     Kw-hr    Low   High
  ---------------------------------------------------------------------------------------------------------
  CC-R1                   22.89           2      0.00    683.00    683.00     4.503     87.83    0.0    4.6
  CC-R2                   19.68           2      0.00    683.00    683.00     3.870     76.15    0.0    5.3
  CC-S1                   47.72           4      0.00    200.00    200.00     2.749     14.73    0.0    0.0
  CC-S2                   31.42           2      0.00    200.00    200.00     1.810      9.10    0.0    0.0
  JK-R1                    7.88          16      0.00   1000.00   1000.00     2.269     27.05    0.0    0.0
  JK-R2                    5.72           5      0.00   1000.00   1000.00     1.648     18.81    0.0    0.0
  JK-S                    15.10          21      0.00    300.00    300.00     1.305     17.34    0.0    0.0
  

  Analysis begun on:  Mon Feb 24 09:53:40 2025
  Analysis ended on:  Mon Feb 24 09:53:41 2025
  Total elapsed time: 00:00:01