
  EPA STORM WATER MANAGEMENT MODEL - VERSION 5.2 (Build 5.2.4)
  PYSWMM TOOLKIT API - VERSION v1.0 (2023-11-27)
  ------------------------------------------------------------

  WARNING 04: minimum elevation drop used for Conduit WS02004404WS02004405
  WARNING 03: negative offset ignored for Link YS02001904YS02001907
  
  ****************
  Analysis Options
  ****************
  Flow Units ............... LPS
  Process Models:
    Rainfall/Runoff ........ YES
    RDII ................... NO
    Snowmelt ............... NO
    Groundwater ............ NO
    Flow Routing ........... YES
    Ponding Allowed ........ NO
    Water Quality .......... NO
  Infiltration Method ...... HORTON
  Flow Routing Method ...... DYNWAVE
  Surcharge Method ......... EXTRAN
  Starting Date ............ 08/28/2015 08:00:00
  Ending Date .............. 08/28/2015 16:00:00
  Antecedent Dry Days ...... 8.0
  Report Time Step ......... 00:01:00
  Wet Time Step ............ 00:01:00
  Dry Time Step ............ 00:01:00
  Routing Time Step ........ 30.00 sec
  Variable Time Step ....... YES
  Maximum Trials ........... 8
  Number of Threads ........ 4
  Head Tolerance ........... 0.001500 m
  
  
  **************************        Volume         Depth
  Runoff Quantity Continuity     hectare-m            mm
  **************************     ---------       -------
  Total Precipitation ......         2.789        84.091
  Evaporation Loss .........         0.000         0.000
  Infiltration Loss ........         0.101         3.054
  Surface Runoff ...........         2.656        80.063
  Final Storage ............         0.033         0.997
  Continuity Error (%) .....        -0.027
  
  
  **************************        Volume        Volume
  Flow Routing Continuity        hectare-m      10^6 ltr
  **************************     ---------     ---------
  Dry Weather Inflow .......         0.025         0.248
  Wet Weather Inflow .......         2.655        26.550
  Groundwater Inflow .......         0.000         0.000
  RDII Inflow ..............         0.000         0.000
  External Inflow ..........         0.083         0.825
  External Outflow .........         2.040        20.395
  Flooding Loss ............         0.905         9.052
  Evaporation Loss .........         0.000         0.000
  Exfiltration Loss ........         0.000         0.000
  Initial Stored Volume ....         0.243         2.431
  Final Stored Volume ......         0.078         0.782
  Continuity Error (%) .....        -0.583
  
  
  *************************
  Highest Continuity Errors
  *************************
  Node YS02001583 (-13.76%)
  Node WS02006256 (-13.03%)
  Node YS02001884 (5.02%)
  Node JK-storage (-1.24%)
  
  
  ***************************
  Time-Step Critical Elements
  ***************************
  Link YS02001793JiankangQianchi (24.31%)
  Link WS02004404WS02004405 (20.65%)
  Link WS02006238WS02006235 (17.66%)
  Link WS02003066WSF200 (11.95%)
  Link WS02006235WS02006234 (5.54%)
  
  
  ********************************
  Highest Flow Instability Indexes
  ********************************
  Link WS02006229WS02006228 (37)
  Link WS02006113WS02006111 (37)
  Link WS02006252WS02006251 (37)
  Link YS02001602YS02001605 (28)
  Link WS02006256WS02006235 (27)
  
  
  *********************************
  Most Frequent Nonconverging Nodes
  *********************************
  Node CC-1 (41.95%)
  Node CC-2 (41.95%)
  Node JK-1 (41.95%)
  Node JK-2 (41.95%)
  Node WSC (41.95%)
  
  
  *************************
  Routing Time Step Summary
  *************************
  Minimum Time Step           :     0.00 sec
  Average Time Step           :     3.01 sec
  Maximum Time Step           :     6.43 sec
  % of Time in Steady State   :     0.00
  Average Iterations per Step :     4.83
  % of Steps Not Converging   :    41.95
  Time Step Frequencies       :
     30.000 - 13.228 sec      :     0.00 %
     13.228 -  5.833 sec      :    19.19 %
      5.833 -  2.572 sec      :    27.08 %
      2.572 -  1.134 sec      :    40.03 %
      1.134 -  0.500 sec      :    13.70 %
  
  
  ***************************
  Subcatchment Runoff Summary
  ***************************
  
  ------------------------------------------------------------------------------------------------------------------------------
                            Total      Total      Total      Total     Imperv       Perv      Total       Total     Peak  Runoff
                           Precip      Runon       Evap      Infil     Runoff     Runoff     Runoff      Runoff   Runoff   Coeff
  Subcatchment                 mm         mm         mm         mm         mm         mm         mm    10^6 ltr      LPS
  ------------------------------------------------------------------------------------------------------------------------------
  sub60                     84.09       0.00       0.00       1.85      72.81       8.24      81.05        1.06   682.87   0.964
  sub61                     84.09       0.00       0.00       2.68      68.67      11.62      80.29        1.47   943.84   0.955
  sub62                     84.09       0.00       0.00       1.24      76.08       5.50      81.58        2.24  1327.97   0.970
  sub63                     84.09       0.00       0.00       4.92      58.74      19.47      78.21        1.78  1044.66   0.930
  sub64                     84.09       0.00       0.00       2.49      70.28      10.13      80.40        1.93  1073.49   0.956
  sub65                     84.09       0.00       0.00       2.16      71.91       8.78      80.69        2.22  1197.95   0.960
  sub66                     84.09       0.00       0.00       6.03      58.63      18.36      76.99        3.59  1546.12   0.916
  sub67                     84.09       0.00       0.00       1.19      76.13       5.54      81.67        1.52  1038.30   0.971
  sub68                     84.09       0.00       0.00       2.22      71.14       9.55      80.69        2.22  1363.13   0.960
  sub69                     84.09       0.00       0.00       1.98      71.37      10.64      82.01        3.04  1599.51   0.975
  sub70                     84.09       0.00       0.00       6.52      55.34      22.08      77.41        2.24   870.02   0.921
  sub71                     84.09       0.00       0.00       1.27      76.04       5.46      81.51        2.13  1163.50   0.969
  sub72                     84.09       0.00       0.00       1.12      76.81       4.76      81.57        1.12   558.92   0.970
  
  
  ******************
  Node Depth Summary
  ******************
  
  ---------------------------------------------------------------------------------
                                 Average  Maximum  Maximum  Time of Max    Reported
                                   Depth    Depth      HGL   Occurrence   Max Depth
  Node                 Type       Meters   Meters   Meters  days hr:min      Meters
  ---------------------------------------------------------------------------------
  WS02003060           JUNCTION     0.22     0.36     5.30     0  02:09        0.36
  WS02003066           JUNCTION     0.18     0.29     5.84     0  02:08        0.29
  WS02003067           JUNCTION     0.47     0.68     6.00     0  02:08        0.68
  WS02003069           JUNCTION     0.24     0.41     4.99     0  02:09        0.41
  WS02003072           JUNCTION     0.30     0.48     4.85     0  02:10        0.48
  WS02003073           JUNCTION     0.17     0.28     4.35     0  02:10        0.28
  WS02004401           JUNCTION     0.56     0.81     6.81     0  02:05        0.81
  WS02004402           JUNCTION     0.59     0.84     6.80     0  02:05        0.84
  WS02004403           JUNCTION     0.61     0.86     6.79     0  02:06        0.86
  WS02004404           JUNCTION     0.69     0.93     6.78     0  02:06        0.93
  WS02004405           JUNCTION     0.68     0.92     6.77     0  02:06        0.92
  WS02004406           JUNCTION     0.69     0.93     6.76     0  02:06        0.93
  WS02004407           JUNCTION     0.16     0.28     6.59     0  02:06        0.28
  WS02004409           JUNCTION     0.36     0.63     6.40     0  02:06        0.63
  WS02004410           JUNCTION     0.38     0.65     6.37     0  02:07        0.65
  WS02004411           JUNCTION     0.40     0.66     6.34     0  02:07        0.66
  WS02004412           JUNCTION     0.42     0.67     6.31     0  02:07        0.67
  WS02004413           JUNCTION     0.58     0.83     6.30     0  02:08        0.83
  WS02006109           JUNCTION     0.64     0.92     7.54     0  02:00        0.92
  WS02006110           JUNCTION     0.64     0.89     7.47     0  02:00        0.89
  WS02006111           JUNCTION     0.17     0.27     6.98     0  02:01        0.27
  WS02006112           JUNCTION     0.72     1.00     6.88     0  02:04        1.00
  WS02006113           JUNCTION     0.26     0.43     7.32     0  02:01        0.43
  WS02006115           JUNCTION     0.45     0.71     6.85     0  02:05        0.71
  WS02006116           JUNCTION     0.54     0.79     6.83     0  02:05        0.79
  WS02006228           JUNCTION     0.63     0.96     7.61     0  02:00        0.95
  WS02006229           JUNCTION     0.61     0.95     7.65     0  02:02        0.95
  WS02006230           JUNCTION     0.61     1.02     7.77     0  02:00        1.01
  WS02006231           JUNCTION     0.40     2.17     9.29     0  01:59        2.17
  WS02006232           JUNCTION     0.54     1.88     8.92     0  01:59        1.88
  WS02006234           JUNCTION     0.47     1.96     9.12     0  02:25        1.96
  WS02006235           JUNCTION     0.51     2.00     9.16     0  02:04        2.00
  WS02006238           JUNCTION     0.54     2.15     9.29     0  02:04        2.15
  WS02006239           JUNCTION     0.51     1.98     9.19     0  02:29        1.66
  WS02006240           JUNCTION     0.50     1.99     9.28     0  02:11        1.99
  WS02006242           JUNCTION     0.57     1.55     8.82     0  01:40        1.55
  WS02006243           JUNCTION     0.51     1.48     8.90     0  01:42        1.48
  WS02006245           JUNCTION     0.51     1.56     9.04     0  02:04        1.56
  WS02006247           JUNCTION     0.53     1.47     8.97     0  02:04        1.47
  WS02006248           JUNCTION     0.51     1.10     8.69     0  01:39        1.10
  WS02006249           JUNCTION     0.53     1.09     8.69     0  01:38        1.09
  WS02006251           JUNCTION     0.54     1.22     8.89     0  01:44        1.19
  WS02006252           JUNCTION     0.34     1.50     9.74     0  00:00        0.74
  WS02006256           JUNCTION     0.87     2.35     9.28     0  00:00        2.35
  WSF200               JUNCTION     0.15     0.28     5.51     0  02:08        0.28
  YS02001580           JUNCTION     0.20     1.05     9.59     0  01:33        1.04
  YS02001583           JUNCTION     0.23     1.14     9.64     0  01:33        0.82
  YS02001586           JUNCTION     0.36     1.13     9.30     0  01:32        1.13
  YS02001590           JUNCTION     0.48     1.40     9.26     0  01:33        1.37
  YS02001593           JUNCTION     0.42     1.35     9.22     0  01:33        1.28
  YS02001596           JUNCTION     0.56     1.80     9.22     0  02:04        1.80
  YS02001600           JUNCTION     0.67     1.87     9.00     0  01:32        1.87
  YS02001601           JUNCTION     0.85     2.06     8.90     0  01:32        2.06
  YS02001602           JUNCTION     0.74     1.87     8.77     0  01:33        1.87
  YS02001605           JUNCTION     0.68     1.78     8.68     0  01:33        1.78
  YS02001607           JUNCTION     0.63     1.68     8.53     0  02:04        1.68
  YS02001610           JUNCTION     0.67     1.68     8.48     0  01:33        1.68
  YS02001613           JUNCTION     0.63     1.70     8.54     0  02:04        1.70
  YS02001616           JUNCTION     0.56     1.61     8.52     0  01:33        1.61
  YS02001619           JUNCTION     0.54     1.61     8.54     0  01:33        1.61
  YS02001622           JUNCTION     0.53     1.62     8.52     0  01:33        1.58
  YS02001625           JUNCTION     0.76     1.78     8.38     0  01:33        1.78
  YS02001629           JUNCTION     0.67     1.85     8.40     0  01:33        1.85
  YS02001633           JUNCTION     0.74     2.08     8.53     0  01:37        2.08
  YS02001641           JUNCTION     0.69     2.10     8.54     0  02:04        2.10
  YS02001644           JUNCTION     0.68     1.92     8.35     0  01:35        1.92
  YS02001647           JUNCTION     0.45     1.90     8.51     0  01:37        1.90
  YS02001649           JUNCTION     0.50     2.05     8.44     0  01:36        2.05
  YS02001652           JUNCTION     0.38     2.16     8.76     0  01:36        2.16
  YS02001655           JUNCTION     0.29     2.20     9.05     0  01:36        2.18
  YS02001658           JUNCTION     0.21     2.30     9.44     0  01:36        1.97
  YS02001661           JUNCTION     0.21     2.46     9.86     0  01:36        1.54
  YS02001664           JUNCTION     0.10     2.31    10.23     0  01:36        1.00
  YS02001745           JUNCTION     0.11     2.35     9.87     0  01:36        0.86
  YS02001748           JUNCTION     0.18     2.27     9.35     0  01:36        1.29
  YS02001751           JUNCTION     0.23     2.20     9.08     0  01:36        1.45
  YS02001754           JUNCTION     0.32     2.20     8.81     0  01:36        1.69
  YS02001757           JUNCTION     0.51     2.21     8.47     0  01:36        2.06
  YS02001759           JUNCTION     0.45     2.21     8.57     0  01:36        2.21
  YS02001762           JUNCTION     0.44     2.15     8.55     0  01:36        2.15
  YS02001765           JUNCTION     0.42     2.10     8.55     0  01:36        2.01
  YS02001767           JUNCTION     0.41     2.03     8.52     0  01:36        1.94
  YS02001770           JUNCTION     0.42     1.95     8.44     0  01:35        1.95
  YS02001774           JUNCTION     0.48     2.02     8.45     0  01:37        1.99
  YS02001779           JUNCTION     0.31     1.68     8.37     0  01:35        1.68
  YS02001783           JUNCTION     0.39     2.40     8.54     0  02:04        2.40
  YS02001784           JUNCTION     0.39     1.78     7.85     0  02:04        1.27
  YS02001786           JUNCTION     0.32     1.06     7.09     0  01:34        0.88
  YS02001788           JUNCTION     0.23     0.63     6.61     0  01:37        0.63
  YS02001790           JUNCTION     0.27     0.73     6.37     0  01:37        0.72
  YS02001791           JUNCTION     0.17     0.44     5.91     0  01:37        0.43
  YS02001793           JUNCTION     0.09     0.25     5.08     0  01:37        0.24
  YS02001882           JUNCTION     0.48     1.83     8.55     0  01:34        1.83
  YS02001884           JUNCTION     0.57     1.90     8.52     0  01:34        1.88
  YS02001887           JUNCTION     0.64     2.00     8.54     0  01:37        2.00
  YS02001890           JUNCTION     0.67     1.81     8.32     0  01:34        1.81
  YS02001895           JUNCTION     0.45     1.73     8.47     0  01:34        1.61
  YS02001898           JUNCTION     0.46     1.77     8.51     0  02:04        1.77
  YS02001901           JUNCTION     0.56     1.76     8.37     0  01:34        1.73
  YS02001904           JUNCTION     0.54     1.85     8.48     0  02:04        1.85
  YS02001907           JUNCTION     0.84     1.96     8.25     0  01:34        1.96
  YS02001910           JUNCTION     0.66     2.10     8.61     0  02:04        2.10
  YS02001915           JUNCTION     0.50     2.00     8.72     0  01:34        2.00
  YS02001918           JUNCTION     0.32     1.81     8.88     0  01:34        1.81
  YS02001920           JUNCTION     0.40     2.11     9.11     0  01:35        1.83
  YS02001923           JUNCTION     0.25     2.03     9.29     0  01:35        1.54
  YS02001926           JUNCTION     0.27     1.90     9.35     0  01:35        1.34
  YS02001929           JUNCTION     0.17     1.78     9.47     0  01:35        1.07
  YS02006553           JUNCTION     0.84     2.08     8.36     0  01:37        2.08
  YS02006556           JUNCTION     0.82     2.39     8.70     0  02:04        2.39
  YS02006558           JUNCTION     0.86     2.50     8.77     0  01:37        2.50
  YS02006561           JUNCTION     0.25     1.26     7.92     0  01:35        1.26
  YS02163301           JUNCTION     0.69     2.03     8.55     0  01:33        2.03
  YS02163601           JUNCTION     0.76     2.08     8.48     0  01:37        2.06
  YS02164001           JUNCTION     0.69     2.10     8.56     0  02:04        2.10
  CC-1                 OUTFALL      0.00     0.00     0.00     0  00:00        0.00
  CC-2                 OUTFALL      0.00     0.00     0.00     0  00:00        0.00
  JK-1                 OUTFALL      0.00     0.00     0.00     0  00:00        0.00
  JK-2                 OUTFALL      0.00     0.00     0.00     0  00:00        0.00
  WSC                  OUTFALL      0.17     0.28     0.95     0  02:11        0.28
  CC-storage           STORAGE      0.50     1.25     6.75     0  02:28        1.25
  JK-storage           STORAGE      0.11     2.99     3.79     0  00:00        0.68
  
  
  *******************
  Node Inflow Summary
  *******************
  
  -------------------------------------------------------------------------------------------------
                                  Maximum  Maximum                  Lateral       Total        Flow
                                  Lateral    Total  Time of Max      Inflow      Inflow     Balance
                                   Inflow   Inflow   Occurrence      Volume      Volume       Error
  Node                 Type           LPS      LPS  days hr:min    10^6 ltr    10^6 ltr     Percent
  -------------------------------------------------------------------------------------------------
  WS02003060           JUNCTION     16.53   503.55     0  02:08       0.471        4.38       0.041
  WS02003066           JUNCTION      0.00   486.70     0  02:08           0        3.91       0.034
  WS02003067           JUNCTION      0.00   486.59     0  02:08           0        3.92       0.101
  WS02003069           JUNCTION      0.32   503.43     0  02:09     0.00912        4.39       0.080
  WS02003072           JUNCTION      0.00   502.99     0  02:09           0        4.39       0.151
  WS02003073           JUNCTION      1.82   504.58     0  02:10      0.0519        4.43       0.111
  WS02004401           JUNCTION      0.00   489.66     0  02:05           0        4.02       0.250
  WS02004402           JUNCTION      0.00   488.91     0  02:02           0        4.01       0.253
  WS02004403           JUNCTION      0.00   489.13     0  02:05           0           4       0.249
  WS02004404           JUNCTION      0.16   488.90     0  02:06     0.00462        3.99       0.212
  WS02004405           JUNCTION      0.04   488.66     0  02:06     0.00109        3.98       0.302
  WS02004406           JUNCTION      0.00   488.53     0  02:06           0        3.97       0.521
  WS02004407           JUNCTION      0.00   488.19     0  02:06           0        3.95       0.021
  WS02004409           JUNCTION      0.00   487.87     0  02:06           0        3.95       0.056
  WS02004410           JUNCTION      0.00   487.82     0  02:07           0        3.95       0.103
  WS02004411           JUNCTION      0.00   487.53     0  02:07           0        3.94       0.132
  WS02004412           JUNCTION      0.00   487.08     0  02:07           0        3.94       0.178
  WS02004413           JUNCTION      0.00   487.21     0  02:07           0        3.93       0.334
  WS02006109           JUNCTION      1.23   493.06     0  02:04      0.0351        4.06       0.196
  WS02006110           JUNCTION      0.00   493.34     0  02:04           0        4.05       0.156
  WS02006111           JUNCTION      0.00   506.75     0  02:04           0        4.04       0.024
  WS02006112           JUNCTION      0.00   493.02     0  02:01           0        4.04       0.498
  WS02006113           JUNCTION      0.00   491.49     0  02:00           0        4.05       0.034
  WS02006115           JUNCTION      0.00   490.49     0  02:05           0        4.02       0.168
  WS02006116           JUNCTION      0.00   490.11     0  02:05           0        4.02       0.009
  WS02006228           JUNCTION      0.00   491.84     0  02:04           0        4.03       0.057
  WS02006229           JUNCTION      0.00   491.17     0  02:04           0        4.03       0.136
  WS02006230           JUNCTION     10.28   538.18     0  02:00       0.293        4.04       0.122
  WS02006231           JUNCTION      0.00   541.01     0  01:55           0        3.74      -0.068
  WS02006232           JUNCTION      0.00   538.79     0  01:55           0        3.75       0.255
  WS02006234           JUNCTION      0.00   566.17     0  01:39           0        3.74      -0.442
  WS02006235           JUNCTION      0.00   574.06     0  01:36           0        3.78      -0.019
  WS02006238           JUNCTION      0.00   428.51     0  02:24           0        3.42       0.019
  WS02006239           JUNCTION      0.00   424.59     0  02:24           0        3.38      -0.209
  WS02006240           JUNCTION      0.00   419.98     0  02:54           0        3.36      -0.113
  WS02006242           JUNCTION      0.00   420.08     0  02:54           0        3.36      -0.048
  WS02006243           JUNCTION      0.00   420.81     0  02:54           0        3.36       0.068
  WS02006245           JUNCTION      0.00   421.77     0  02:54           0        3.37       0.405
  WS02006247           JUNCTION      0.00   422.19     0  02:54           0        3.37       0.007
  WS02006248           JUNCTION      0.00   423.11     0  02:54           0        3.39       0.106
  WS02006249           JUNCTION      0.00   464.34     0  01:30           0         3.4       0.304
  WS02006251           JUNCTION      0.08   404.51     0  01:29     0.00219         3.4      -0.027
  WS02006252           JUNCTION      0.00   400.00     0  00:00           0         3.4      -0.041
  WS02006256           JUNCTION      0.00   332.92     0  01:30           0       0.662     -11.527
  WSF200               JUNCTION      0.00   486.65     0  02:08           0        3.91       0.008
  YS02001580           JUNCTION      0.00   157.98     0  01:33           0     0.00441       0.668
  YS02001583           JUNCTION      0.00   253.26     0  01:33           0      0.0145     -12.097
  YS02001586           JUNCTION    870.02   870.02     0  01:42        2.24        2.25       0.078
  YS02001590           JUNCTION      0.00   327.58     0  02:04           0        1.59      -0.039
  YS02001593           JUNCTION      0.00   322.54     0  02:04           0        1.59       0.020
  YS02001596           JUNCTION      0.00   317.98     0  02:04           0        1.59       0.003
  YS02001600           JUNCTION      0.00   318.24     0  02:04           0        1.59       0.015
  YS02001601           JUNCTION   1599.51  1917.13     0  01:40        3.04        4.62       0.021
  YS02001602           JUNCTION      0.00   576.53     0  01:33           0        2.63       0.022
  YS02001605           JUNCTION      0.00   576.69     0  01:33           0        2.49       0.026
  YS02001607           JUNCTION      0.00   576.51     0  01:33           0        2.49       0.079
  YS02001610           JUNCTION      0.00   874.89     0  01:42           0        2.95       0.087
  YS02001613           JUNCTION      0.00   546.82     0  01:33           0        2.35       0.083
  YS02001616           JUNCTION      0.00   548.99     0  01:33           0        2.35       0.022
  YS02001619           JUNCTION   1546.12  1546.12     0  01:42        3.59        5.48      -0.002
  YS02001622           JUNCTION      0.00  1011.65     0  01:41           0        5.02       0.000
  YS02001625           JUNCTION      0.00  1426.91     0  01:43           0        5.29       0.179
  YS02001629           JUNCTION      0.00   937.13     0  01:33           0        4.26       0.006
  YS02001633           JUNCTION   1198.15  1437.68     0  01:34        2.23        6.09       0.058
  YS02001641           JUNCTION      0.00  1436.01     0  01:34           0        5.72       0.052
  YS02001644           JUNCTION   1073.53  1955.42     0  01:34        1.93        7.65       0.043
  YS02001647           JUNCTION      0.00  1955.09     0  01:34           0        6.98       0.006
  YS02001649           JUNCTION      0.00  2213.68     0  01:35           0        8.76       0.009
  YS02001652           JUNCTION      0.00  1073.31     0  01:37           0        1.78      -0.136
  YS02001655           JUNCTION      0.15  1071.78     0  01:37     0.00439        1.78       0.057
  YS02001658           JUNCTION      0.00  1071.25     0  01:37           0        1.77      -0.050
  YS02001661           JUNCTION      0.00  1070.09     0  01:37           0        1.78       0.002
  YS02001664           JUNCTION   1044.66  1044.66     0  01:39        1.77        1.77      -0.045
  YS02001745           JUNCTION    682.88   772.86     0  01:36        1.06        1.07       0.112
  YS02001748           JUNCTION      0.04   972.00     0  01:36     0.00128        1.07      -0.339
  YS02001751           JUNCTION      0.01   708.98     0  01:38    0.000313        1.08       0.052
  YS02001754           JUNCTION      0.26   709.42     0  01:37     0.00741        1.09      -0.153
  YS02001757           JUNCTION      0.00  3485.10     0  01:43           0        13.2       0.051
  YS02001759           JUNCTION    943.88  1538.83     0  01:36        1.47        3.36      -0.004
  YS02001762           JUNCTION      0.00   832.30     0  01:48           0        1.88      -0.003
  YS02001765           JUNCTION      0.00   831.94     0  01:47           0        1.89       0.029
  YS02001767           JUNCTION      0.54   831.71     0  01:47      0.0152        1.89      -0.001
  YS02001770           JUNCTION   1328.12  1328.12     0  01:39        2.24        2.28      -0.007
  YS02001774           JUNCTION      0.00   814.74     0  01:39           0       0.422       0.312
  YS02001779           JUNCTION      0.01   814.32     0  01:39    0.000142       0.378      -0.241
  YS02001783           JUNCTION      0.00  1176.90     0  01:37           0        4.78       0.005
  YS02001784           JUNCTION      1.06  1176.49     0  01:37      0.0302        4.81       0.014
  YS02001786           JUNCTION      0.06  1177.31     0  01:37      0.0016        4.81       0.012
  YS02001788           JUNCTION      0.07  1179.17     0  01:37     0.00202        4.81       0.006
  YS02001790           JUNCTION      0.15  1177.34     0  01:38     0.00442        4.81       0.002
  YS02001791           JUNCTION      0.00  1300.79     0  01:37           0        4.81      -0.005
  YS02001793           JUNCTION      0.00  1241.05     0  01:41           0        4.81      -0.047
  YS02001882           JUNCTION      0.00    91.41     0  01:34           0      0.0131       3.686
  YS02001884           JUNCTION      0.00   143.52     0  01:33           0      0.0492       5.288
  YS02001887           JUNCTION   1038.75  1039.45     0  01:38        1.53        1.56       0.280
  YS02001890           JUNCTION      0.00  1039.20     0  01:38           0        1.52       0.341
  YS02001895           JUNCTION      0.00   584.77     0  01:34           0         1.3       0.134
  YS02001898           JUNCTION      0.00   589.32     0  01:34           0         1.3      -0.026
  YS02001901           JUNCTION      0.00   594.53     0  01:34           0         1.3       0.271
  YS02001904           JUNCTION      0.00   595.32     0  01:34           0        1.31       0.225
  YS02001907           JUNCTION      0.00  2427.03     0  01:39           0        4.68       0.388
  YS02001910           JUNCTION      0.00  1730.12     0  01:40           0        3.33       0.226
  YS02001915           JUNCTION   1163.52  1729.60     0  01:40        2.13        3.39       0.046
  YS02001918           JUNCTION      0.00   698.20     0  01:34           0        1.29       0.004
  YS02001920           JUNCTION      2.87   709.46     0  01:34      0.0818        1.26       0.067
  YS02001923           JUNCTION      0.04   951.86     0  01:34     0.00107        1.17      -0.042
  YS02001926           JUNCTION      0.05  1189.93     0  01:35     0.00149        1.14      -0.133
  YS02001929           JUNCTION    558.92   924.93     0  01:35        1.12        1.13      -0.122
  YS02006553           JUNCTION      0.00   791.99     0  02:04           0        2.68       0.452
  YS02006556           JUNCTION      0.00   791.79     0  02:05           0        2.69       0.303
  YS02006558           JUNCTION   1364.01  1364.01     0  01:39        2.25        4.86       0.068
  YS02006561           JUNCTION      0.00  1178.64     0  01:34           0        4.78      -0.000
  YS02163301           JUNCTION      0.00   927.72     0  02:12           0        4.24       0.041
  YS02163601           JUNCTION      0.11  1437.18     0  01:34     0.00313        5.72       0.090
  YS02164001           JUNCTION      0.00  1436.77     0  01:34           0        5.72       0.044
  CC-1                 OUTFALL       0.00   683.00     0  00:00           0         5.8       0.000
  CC-2                 OUTFALL       0.00   683.00     0  00:00           0         5.8       0.000
  JK-1                 OUTFALL       0.00  1000.00     0  00:00           0        2.18       0.000
  JK-2                 OUTFALL       0.00  1000.00     0  00:00           0        2.18       0.000
  WSC                  OUTFALL       0.00   504.35     0  02:11           0        4.43       0.000
  CC-storage           STORAGE       0.00  3484.57     0  01:43           0        15.4      -0.311
  JK-storage           STORAGE       0.00  1371.19     0  01:37           0        4.97      -1.221
  
  
  **********************
  Node Surcharge Summary
  **********************
  
  Surcharging occurs when water rises above the top of the highest conduit.
  ---------------------------------------------------------------------
                                               Max. Height   Min. Depth
                                   Hours       Above Crown    Below Rim
  Node                 Type      Surcharged         Meters       Meters
  ---------------------------------------------------------------------
  WS02006109           JUNCTION        1.95          0.105        1.715
  WS02006228           JUNCTION        1.93          0.130        2.070
  WS02006229           JUNCTION        1.96          0.152        2.298
  WS02006231           JUNCTION        0.13          1.461        0.069
  WS02006232           JUNCTION        2.06          1.180        0.300
  WS02006234           JUNCTION        0.94          1.240        0.000
  WS02006235           JUNCTION        1.79          1.290        0.000
  WS02006238           JUNCTION        2.01          1.430        0.000
  WS02006239           JUNCTION        1.93          1.241        0.049
  WS02006240           JUNCTION        1.97          1.279        0.111
  WS02006242           JUNCTION        2.08          0.820        0.000
  WS02006243           JUNCTION        1.99          0.770        0.000
  WS02006245           JUNCTION        1.99          0.850        0.000
  WS02006247           JUNCTION        2.01          0.760        0.000
  WS02006248           JUNCTION        1.97          0.380        0.000
  WS02006249           JUNCTION        1.99          0.390        0.000
  WS02006251           JUNCTION        0.57          0.195        0.985
  WS02006252           JUNCTION        2.36          1.100        0.000
  WS02006256           JUNCTION        4.56          2.050        0.000
  YS02001580           JUNCTION        0.83          0.450        0.000
  YS02001583           JUNCTION        0.83          0.500        0.000
  YS02001586           JUNCTION        0.94          0.510        0.000
  YS02001590           JUNCTION        1.03          0.750        0.000
  YS02001593           JUNCTION        1.03          0.735        0.105
  YS02001596           JUNCTION        1.15          1.070        0.000
  YS02001600           JUNCTION        1.35          1.190        0.000
  YS02001601           JUNCTION        1.70          1.440        0.000
  YS02001602           JUNCTION        1.62          1.270        0.000
  YS02001605           JUNCTION        1.59          1.180        0.000
  YS02001607           JUNCTION        0.94          0.678        0.002
  YS02001610           JUNCTION        0.98          0.680        0.000
  YS02001613           JUNCTION        0.93          0.700        0.000
  YS02001616           JUNCTION        0.88          0.610        0.000
  YS02001619           JUNCTION        0.86          0.610        0.000
  YS02001622           JUNCTION        0.85          0.620        0.000
  YS02001625           JUNCTION        1.09          0.780        0.000
  YS02001629           JUNCTION        0.74          0.470        0.000
  YS02001633           JUNCTION        1.09          1.060        0.000
  YS02001641           JUNCTION        0.96          1.100        0.000
  YS02001644           JUNCTION        0.90          0.920        0.000
  YS02001647           JUNCTION        0.63          0.900        0.000
  YS02001649           JUNCTION        0.73          1.050        0.000
  YS02001652           JUNCTION        0.50          1.130        0.000
  YS02001655           JUNCTION        0.34          1.200        0.000
  YS02001658           JUNCTION        0.23          1.300        0.000
  YS02001661           JUNCTION        0.09          1.390        0.000
  YS02001664           JUNCTION        0.01          1.310        0.000
  YS02001745           JUNCTION        0.01          1.350        0.000
  YS02001748           JUNCTION        0.14          1.190        0.000
  YS02001751           JUNCTION        0.25          1.200        0.000
  YS02001754           JUNCTION        0.35          1.150        0.000
  YS02001757           JUNCTION        0.75          1.210        0.000
  YS02001759           JUNCTION        0.64          1.210        0.000
  YS02001762           JUNCTION        0.60          1.150        0.000
  YS02001765           JUNCTION        0.55          1.100        0.000
  YS02001767           JUNCTION        0.50          1.030        0.000
  YS02001770           JUNCTION        0.48          0.920        0.000
  YS02001774           JUNCTION        0.60          1.025        0.025
  YS02001779           JUNCTION        0.37          0.680        0.000
  YS02001783           JUNCTION        0.70          1.600        0.000
  YS02001784           JUNCTION        0.67          0.979        0.511
  YS02001786           JUNCTION        0.56          0.265        1.165
  YS02001882           JUNCTION        0.63          0.830        0.000
  YS02001884           JUNCTION        0.64          0.839        0.031
  YS02001887           JUNCTION        0.69          0.950        0.000
  YS02001890           JUNCTION        0.70          0.760        0.000
  YS02001895           JUNCTION        0.62          0.726        0.024
  YS02001898           JUNCTION        0.62          0.740        0.000
  YS02001901           JUNCTION        0.67          0.758        0.112
  YS02001904           JUNCTION        0.66          0.850        0.000
  YS02001907           JUNCTION        0.91          0.950        0.000
  YS02001910           JUNCTION        0.73          1.100        0.000
  YS02001915           JUNCTION        0.63          1.000        0.000
  YS02001918           JUNCTION        0.54          0.810        0.000
  YS02001920           JUNCTION        0.56          1.106        0.034
  YS02001923           JUNCTION        0.20          0.820        0.000
  YS02001926           JUNCTION        0.23          0.900        0.000
  YS02001929           JUNCTION        0.03          0.780        0.000
  YS02006553           JUNCTION        0.94          1.080        0.110
  YS02006556           JUNCTION        0.82          1.350        0.000
  YS02006558           JUNCTION        0.81          1.400        0.000
  YS02006561           JUNCTION        0.50          0.464        0.686
  YS02163301           JUNCTION        1.07          1.030        0.000
  YS02163601           JUNCTION        1.12          1.080        0.000
  YS02164001           JUNCTION        0.98          1.100        0.000
  
  
  *********************
  Node Flooding Summary
  *********************
  
  Flooding refers to all water that overflows a node, whether it ponds or not.
  --------------------------------------------------------------------------
                                                             Total   Maximum
                                 Maximum   Time of Max       Flood    Ponded
                        Hours       Rate    Occurrence      Volume     Depth
  Node                 Flooded       LPS   days hr:min    10^6 ltr    Meters
  --------------------------------------------------------------------------
  WS02006234              0.01     46.68      0  02:25       0.000     0.000
  WS02006235              0.01     26.09      0  02:04       0.000     0.000
  WS02006238              0.01     29.67      0  02:04       0.000     0.000
  WS02006242              0.02     21.95      0  02:25       0.000     0.000
  WS02006243              0.01     21.62      0  01:42       0.000     0.000
  WS02006245              0.01      0.56      0  02:04       0.000     0.000
  WS02006247              0.01      0.58      0  02:04       0.000     0.000
  WS02006248              0.18     26.84      0  02:02       0.009     0.000
  WS02006249              0.25     18.09      0  02:00       0.005     0.000
  WS02006252              0.01    245.63      0  00:00       0.000     0.000
  WS02006256              0.61    320.62      0  01:30       0.379     0.000
  YS02001580              0.01     82.57      0  01:33       0.000     0.000
  YS02001583              0.01    176.85      0  01:33       0.000     0.000
  YS02001586              0.68    552.40      0  01:42       0.649     0.000
  YS02001590              0.01      4.89      0  01:33       0.000     0.000
  YS02001596              0.01      0.19      0  02:04       0.000     0.000
  YS02001600              0.01      3.97      0  02:04       0.000     0.000
  YS02001601              0.84   1519.22      0  01:40       1.991     0.000
  YS02001602              0.65     62.06      0  02:02       0.136     0.000
  YS02001605              0.01      1.33      0  01:33       0.000     0.000
  YS02001610              0.59    874.68      0  01:42       1.054     0.000
  YS02001613              0.01      0.16      0  02:04       0.000     0.000
  YS02001616              0.01     35.63      0  01:33       0.000     0.000
  YS02001619              0.01     71.92      0  01:33       0.000     0.000
  YS02001622              0.01    242.18      0  01:33       0.001     0.000
  YS02001625              0.52   1426.85      0  01:43       1.390     0.000
  YS02001629              0.18    428.59      0  01:38       0.128     0.000
  YS02001633              0.01      1.75      0  01:37       0.000     0.000
  YS02001641              0.01      0.54      0  02:04       0.000     0.000
  YS02001644              0.22   1419.24      0  01:39       0.659     0.000
  YS02001647              0.01      0.58      0  01:37       0.000     0.000
  YS02001649              0.01    361.34      0  01:36       0.011     0.000
  YS02001652              0.01     54.15      0  01:36       0.000     0.000
  YS02001655              0.01     79.87      0  01:36       0.000     0.000
  YS02001658              0.01    331.77      0  01:36       0.001     0.000
  YS02001661              0.01    406.28      0  01:36       0.000     0.000
  YS02001664              0.01    201.42      0  01:36       0.000     0.000
  YS02001745              0.01     47.72      0  01:36       0.000     0.000
  YS02001748              0.01    479.00      0  01:36       0.002     0.000
  YS02001751              0.01    467.66      0  01:36       0.001     0.000
  YS02001754              0.01     41.46      0  01:36       0.000     0.000
  YS02001757              0.01     82.31      0  01:36       0.000     0.000
  YS02001759              0.01      4.42      0  01:36       0.000     0.000
  YS02001762              0.01     17.43      0  01:36       0.000     0.000
  YS02001765              0.01     15.73      0  01:36       0.000     0.000
  YS02001767              0.01     10.30      0  01:36       0.000     0.000
  YS02001770              0.04    166.36      0  01:35       0.009     0.000
  YS02001779              0.21    814.17      0  01:39       0.360     0.000
  YS02001783              0.01      0.26      0  02:04       0.000     0.000
  YS02001882              0.01     18.92      0  01:34       0.000     0.000
  YS02001887              0.01      0.82      0  01:37       0.000     0.000
  YS02001890              0.22    519.87      0  01:38       0.217     0.000
  YS02001898              0.01      0.21      0  02:04       0.000     0.000
  YS02001904              0.01      0.64      0  02:04       0.000     0.000
  YS02001907              0.48   2426.63      0  01:39       2.038     0.000
  YS02001910              0.01      0.37      0  02:04       0.000     0.000
  YS02001915              0.01     20.30      0  01:34       0.000     0.000
  YS02001918              0.01    245.04      0  01:35       0.004     0.000
  YS02001923              0.01    216.64      0  01:35       0.001     0.000
  YS02001926              0.01    655.13      0  01:35       0.006     0.000
  YS02001929              0.01    823.98      0  01:35       0.002     0.000
  YS02006556              0.01      1.77      0  02:04       0.000     0.000
  YS02006558              0.01      1.46      0  01:37       0.000     0.000
  YS02163301              0.01     47.11      0  01:33       0.000     0.000
  YS02163601              0.01      5.61      0  01:37       0.000     0.000
  YS02164001              0.01      0.45      0  02:04       0.000     0.000
  
  
  **********************
  Storage Volume Summary
  **********************
  
  ------------------------------------------------------------------------------------------------
                         Average    Avg   Evap  Exfil     Maximum    Max    Time of Max    Maximum
                          Volume   Pcnt   Pcnt   Pcnt      Volume   Pcnt     Occurrence    Outflow
  Storage Unit           1000 m³   Full   Loss   Loss     1000 m³   Full    days hr:min        LPS
  ------------------------------------------------------------------------------------------------
  CC-storage               1.407   21.9    0.0    0.0       3.485   54.4       0  02:28    1783.53
  JK-storage               0.006    1.9    0.0    0.0       0.150   51.6       0  00:00    2300.00
  
  
  ***********************
  Outfall Loading Summary
  ***********************
  
  -----------------------------------------------------------
                         Flow       Avg       Max       Total
                         Freq      Flow      Flow      Volume
  Outfall Node           Pcnt       LPS       LPS    10^6 ltr
  -----------------------------------------------------------
  CC-1                  55.07    683.00    683.00       5.801
  CC-2                  55.07    683.00    683.00       5.801
  JK-1                  16.07   1000.00   1000.00       2.183
  JK-2                  16.07   1000.00   1000.00       2.183
  WSC                   99.94    230.39    504.35       4.428
  -----------------------------------------------------------
  System                48.44   3596.39   3870.34      20.395
  
  
  ********************
  Link Flow Summary
  ********************
  
  -----------------------------------------------------------------------------
                                 Maximum  Time of Max   Maximum    Max/    Max/
                                  |Flow|   Occurrence   |Veloc|    Full    Full
  Link                 Type          LPS  days hr:min     m/sec    Flow   Depth
  -----------------------------------------------------------------------------
  1                    CONDUIT    504.35     0  02:11      2.75    0.18    0.28
  WS02003060WS02003069 CONDUIT    503.11     0  02:09      1.60    0.20    0.32
  WS02003066WSF200     CONDUIT    486.65     0  02:08      2.78    0.08    0.21
  WS02003067WS02003066 CONDUIT    486.70     0  02:08      1.14    0.16    0.40
  WS02003069WS02003072 CONDUIT    502.99     0  02:09      1.33    0.24    0.37
  WS02003072WS02003073 CONDUIT    502.75     0  02:10      1.39    1.09    0.36
  WS02004401WS02004402 CONDUIT    488.91     0  02:02      1.22    0.59    0.83
  WS02004402WS02004403 CONDUIT    489.13     0  02:05      1.24    0.70    0.85
  WS02004403WS02004404 CONDUIT    488.74     0  02:06      1.24    0.35    0.89
  WS02004404WS02004405 CONDUIT    488.63     0  02:06      1.45    4.79    0.93
  WS02004405WS02004406 CONDUIT    488.53     0  02:06      1.46    0.96    0.93
  WS02004406WS02004407 CONDUIT    488.19     0  02:06      0.98    0.22    0.61
  WS02004407WS02004409 CONDUIT    487.87     0  02:06      1.59    0.17    0.46
  WS02004409WS02004410 CONDUIT    487.82     0  02:07      1.06    0.63    0.64
  WS02004410WS02004411 CONDUIT    487.53     0  02:07      1.13    0.67    0.65
  WS02004411WS02004412 CONDUIT    487.08     0  02:07      1.20    0.69    0.66
  WS02004412WS02004413 CONDUIT    487.21     0  02:07      1.22    0.33    0.75
  WS02004413WS02003067 CONDUIT    486.59     0  02:08      1.05    0.21    0.57
  WS02006109WS02006110 CONDUIT    493.34     0  02:04      0.98    0.95    0.99
  WS02006110WS02006113 CONDUIT    491.49     0  02:00      1.19    0.45    0.77
  WS02006111WS02006112 CONDUIT    493.02     0  02:01      1.95    0.23    0.66
  WS02006112WS02006115 CONDUIT    490.49     0  02:05      0.82    0.29    0.85
  WS02006113WS02006111 CONDUIT    506.75     0  02:04      2.38    0.61    0.44
  WS02006115WS02006116 CONDUIT    490.11     0  02:05      1.29    0.63    0.72
  WS02006116WS02004401 CONDUIT    489.66     0  02:05      1.21    0.67    0.80
  WS02006228WS02006109 CONDUIT    491.83     0  02:04      1.06    2.15    1.00
  WS02006229WS02006228 CONDUIT    491.84     0  02:04      1.12    1.63    1.00
  WS02006230WS02006229 CONDUIT    491.17     0  02:04      1.28   10.93    1.00
  WS02006231WS02006230 CONDUIT    527.91     0  02:00      1.46    8.01    0.95
  WS02006232WS02006231 CONDUIT    541.01     0  01:55      1.41    1.13    1.00
  WS02006234WS02006232 CONDUIT    538.79     0  01:55      1.40    1.09    1.00
  WS02006235WS02006234 CONDUIT    566.17     0  01:39      1.47    5.97    1.00
  WS02006238WS02006235 CONDUIT    436.80     0  02:14      1.45    0.98    1.00
  WS02006239WS02006238 CONDUIT    428.51     0  02:24      1.15    1.37    1.00
  WS02006240WS02006239 CONDUIT    424.59     0  02:24      1.24    1.34    1.00
  WS02006242WS02006240 CONDUIT    419.98     0  02:54      1.16    1.67    1.00
  WS02006243WS02006242 CONDUIT    420.08     0  02:54      1.42    0.90    1.00
  WS02006245WS02006243 CONDUIT    420.81     0  02:54      1.44    1.24    1.00
  WS02006247WS02006245 CONDUIT    421.77     0  02:54      1.43    3.34    1.00
  WS02006248WS02006247 CONDUIT    422.19     0  02:54      1.44    0.92    1.00
  WS02006249WS02006248 CONDUIT    423.11     0  02:54      1.38    2.32    1.00
  WS02006251WS02006249 CONDUIT    464.34     0  01:30      1.99    1.34    1.00
  WS02006252WS02006251 CONDUIT    404.43     0  01:29     18.84    1.48    1.00
  WS02006256WS02006235 CONDUIT    288.91     0  00:00      4.23    3.06    1.00
  WSF200WS02003060     CONDUIT    487.02     0  02:08      2.01    0.11    0.27
  YS02001580YS02001583 CONDUIT    157.98     0  01:33      0.88    0.61    1.00
  YS02001583YS02001586 CONDUIT    202.54     0  01:33      0.91    0.31    1.00
  YS02001586YS02001590 CONDUIT    327.58     0  02:04      1.28    0.57    1.00
  YS02001590YS02001593 CONDUIT    322.54     0  02:04      1.14    2.02    1.00
  YS02001593YS02001596 CONDUIT    317.98     0  02:04      1.75    0.50    1.00
  YS02001596YS02001600 CONDUIT    318.24     0  02:04      1.23    0.62    1.00
  YS02001600YS02001601 CONDUIT    317.92     0  02:10      1.12    0.55    1.00
  YS02001601YS02001602 CONDUIT    576.53     0  01:33      2.04    2.08    1.00
  YS02001602YS02001605 CONDUIT    576.69     0  01:33      2.04   12.20    1.00
  YS02001605YS02001607 CONDUIT    576.51     0  01:33      2.04    3.16    1.00
  YS02001607YS02001610 CONDUIT    546.01     0  01:33      0.71    0.52    1.00
  YS02001610YS02001613 CONDUIT    546.82     0  01:33      0.70    0.63    1.00
  YS02001613YS02001616 CONDUIT    548.99     0  01:33      0.70    0.47    1.00
  YS02001616YS02001619 CONDUIT    538.55     0  01:41      0.69    0.94    1.00
  YS02001619YS02001622 CONDUIT   1011.65     0  01:41      1.29    1.49    1.00
  YS02001622YS02001625 CONDUIT   1011.53     0  01:41      1.29    0.54    1.00
  YS02001625YS02001629 CONDUIT    937.13     0  01:33      1.20    0.45    1.00
  YS02001629YS02163301 CONDUIT    927.72     0  02:12      1.18    1.14    1.00
  YS02001633YS02163601 CONDUIT   1437.07     0  01:34      1.83    1.51    1.00
  YS02001641YS02001644 CONDUIT   1435.35     0  01:34      1.83    4.64    1.00
  YS02001644YS02001647 CONDUIT   1955.09     0  01:34      2.49    1.15    1.00
  YS02001647YS02001649 CONDUIT   1960.05     0  01:34      2.50    1.03    1.00
  YS02001649YS02001757 CONDUIT   2214.35     0  01:35      2.82    1.34    1.00
  YS02001652YS02001649 CONDUIT   1073.61     0  01:37      1.37    0.53    1.00
  YS02001655YS02001652 CONDUIT   1073.31     0  01:37      1.54    0.52    1.00
  YS02001658YS02001655 CONDUIT   1071.63     0  01:37      2.05    0.45    1.00
  YS02001661YS02001658 CONDUIT   1071.25     0  01:37      2.47    0.42    1.00
  YS02001664YS02001661 CONDUIT   1070.09     0  01:37      2.59    0.34    1.00
  YS02001745YS02001748 CONDUIT    708.96     0  01:38      2.45    0.27    1.00
  YS02001748YS02001751 CONDUIT    708.97     0  01:38      1.92    0.36    1.00
  YS02001751YS02001754 CONDUIT    709.16     0  01:37      1.60    0.34    1.00
  YS02001754YS02001757 CONDUIT    709.75     0  01:38      0.90    0.29    1.00
  YS02001757CaochengTiaoxuchi CONDUIT   3484.57     0  01:43      6.69    1.51    1.00
  YS02001759YS02001757 CONDUIT   1534.41     0  01:36      1.95    1.09    1.00
  YS02001762YS02001759 CONDUIT    832.72     0  01:48      1.06    0.96    1.00
  YS02001765YS02001762 CONDUIT    832.30     0  01:48      1.06    0.78    1.00
  YS02001767YS02001765 CONDUIT    831.94     0  01:47      1.06    1.05    1.00
  YS02001770YS02001767 CONDUIT    831.17     0  01:47      1.06    3.29    1.00
  YS02001774YS02001770 CONDUIT    814.74     0  01:39      1.04    0.52    1.00
  YS02001779YS02001774 CONDUIT    814.32     0  01:39      1.04    0.41    1.00
  YS02001783YS02001784 CONDUIT   1175.43     0  01:37      2.34    1.62    1.00
  YS02001784YS02001785 CONDUIT   1177.25     0  01:37      2.34    2.74    1.00
  YS02001786YS02001788 CONDUIT   1179.10     0  01:37      2.50    2.27    0.89
  YS02001788YS02001790 CONDUIT   1177.19     0  01:38      2.75    0.87    0.84
  YS02001790YS02001791 CONDUIT   1300.79     0  01:37      3.44    1.42    0.71
  YS02001791YS02001793 CONDUIT   1241.05     0  01:41      6.76    0.53    0.43
  YS02001793JiankangQianchi CONDUIT   1371.19     0  01:37     15.00    0.11    0.50
  YS02001882YS02001884 CONDUIT     91.41     0  01:34      0.17    0.10    1.00
  YS02001884YS02001887 CONDUIT    143.52     0  01:33      0.18    0.19    1.00
  YS02001887YS02001890 CONDUIT   1039.20     0  01:38      1.32    1.78    1.00
  YS02001890YS02001895 CONDUIT    584.77     0  01:34      0.74    0.27    1.00
  YS02001895YS02001898 CONDUIT    589.32     0  01:34      0.75    1.02    1.00
  YS02001898YS02001901 CONDUIT    594.53     0  01:34      0.76    0.38    1.00
  YS02001901YS02001904 CONDUIT    595.32     0  01:34      0.76    0.92    1.00
  YS02001904YS02001907 CONDUIT    595.91     0  01:34      0.76    0.21    1.00
  YS02001907YS02006553 CONDUIT    791.99     0  02:04      0.88    0.93    1.00
  YS02001910YS02001907 CONDUIT   1730.36     0  01:40      2.20    0.98    1.00
  YS02001915YS02001910 CONDUIT   1730.12     0  01:40      2.20    0.86    1.00
  YS02001918YS02001915 CONDUIT    698.20     0  01:34      0.91    0.39    1.00
  YS02001920YS02001918 CONDUIT    706.59     0  01:34      0.90    0.68    1.00
  YS02001923YS02001920 CONDUIT    720.28     0  01:34      0.99    0.32    1.00
  YS02001926YS02001923 CONDUIT    946.21     0  01:35      1.39    1.35    1.00
  YS02001929YS02001926 CONDUIT    625.15     0  01:35      1.23    0.30    1.00
  YS02006553YS02006556 CONDUIT    791.79     0  02:05      1.01    0.68    1.00
  YS02006556YS02006558 CONDUIT    793.45     0  02:04      1.01    0.63    1.00
  YS02006558YS02006561 CONDUIT   1178.64     0  01:34      4.17    2.61    1.00
  YS02006561YS02001783 CONDUIT   1176.90     0  01:37      2.34    0.61    1.00
  YS02163301YS02001633 CONDUIT    927.76     0  02:12      1.18    0.87    1.00
  YS02163601YS02164001 CONDUIT   1436.77     0  01:34      1.83    1.27    1.00
  YS02164001YS02001641 CONDUIT   1436.01     0  01:34      1.83    1.96    1.00
  CC-R1                PUMP       683.00     0  00:00              1.00
  CC-R2                PUMP       683.00     0  00:00              1.00
  CC-S1                PUMP       200.00     0  00:00              1.00
  CC-S2                PUMP       200.00     0  00:00              1.00
  JK-R1                PUMP      1000.00     0  00:00              1.00
  JK-R2                PUMP      1000.00     0  00:00              1.00
  JK-S                 PUMP       300.00     0  00:00              1.00
  
  
  ***************************
  Flow Classification Summary
  ***************************
  
  -------------------------------------------------------------------------------------
                      Adjusted    ---------- Fraction of Time in Flow Class ---------- 
                       /Actual         Up    Down  Sub   Sup   Up    Down  Norm  Inlet 
  Conduit               Length    Dry  Dry   Dry   Crit  Crit  Crit  Crit  Ltd   Ctrl  
  -------------------------------------------------------------------------------------
  1                       1.00   0.00  0.00  0.00  0.00  1.00  0.00  0.00  0.62  0.00
  WS02003060WS02003069    1.00   0.00  0.00  0.00  0.98  0.02  0.00  0.00  0.73  0.00
  WS02003066WSF200        1.00   0.05  0.00  0.00  0.00  0.95  0.00  0.00  0.92  0.00
  WS02003067WS02003066    1.00   0.05  0.00  0.00  0.95  0.00  0.00  0.00  0.00  0.00
  WS02003069WS02003072    1.00   0.00  0.00  0.00  0.99  0.01  0.00  0.00  0.74  0.00
  WS02003072WS02003073    1.00   0.00  0.00  0.00  0.00  0.00  0.00  1.00  0.00  0.00
  WS02004401WS02004402    1.00   0.02  0.00  0.00  0.98  0.00  0.00  0.00  0.00  0.00
  WS02004402WS02004403    1.00   0.02  0.00  0.00  0.98  0.00  0.00  0.00  0.00  0.00
  WS02004403WS02004404    1.00   0.00  0.03  0.00  0.97  0.00  0.00  0.00  0.00  0.00
  WS02004404WS02004405    1.00   0.00  0.00  0.00  1.00  0.00  0.00  0.00  0.00  0.00
  WS02004405WS02004406    1.00   0.00  0.00  0.00  1.00  0.00  0.00  0.00  0.00  0.00
  WS02004406WS02004407    1.00   0.00  0.03  0.00  0.97  0.00  0.00  0.00  0.00  0.00
  WS02004407WS02004409    1.00   0.03  0.00  0.00  0.95  0.02  0.00  0.00  0.95  0.00
  WS02004409WS02004410    1.00   0.03  0.00  0.00  0.96  0.00  0.00  0.00  0.00  0.00
  WS02004410WS02004411    1.00   0.04  0.00  0.00  0.96  0.00  0.00  0.00  0.00  0.00
  WS02004411WS02004412    1.00   0.04  0.00  0.00  0.96  0.00  0.00  0.00  0.00  0.00
  WS02004412WS02004413    1.00   0.04  0.00  0.00  0.96  0.00  0.00  0.00  0.00  0.00
  WS02004413WS02003067    1.00   0.04  0.01  0.00  0.00  0.00  0.95  0.00  0.00  0.00
  WS02006109WS02006110    1.00   0.00  0.01  0.00  0.98  0.00  0.01  0.00  0.00  0.00
  WS02006110WS02006113    1.00   0.01  0.01  0.00  0.98  0.00  0.00  0.00  0.00  0.00
  WS02006111WS02006112    1.00   0.02  0.00  0.00  0.98  0.00  0.00  0.00  0.98  0.00
  WS02006112WS02006115    1.00   0.02  0.00  0.00  0.97  0.00  0.00  0.00  0.00  0.00
  WS02006113WS02006111    1.00   0.02  0.00  0.00  0.00  0.98  0.00  0.00  0.11  0.00
  WS02006115WS02006116    1.00   0.02  0.00  0.00  0.97  0.00  0.00  0.01  0.00  0.00
  WS02006116WS02004401    1.00   0.02  0.00  0.00  0.98  0.00  0.00  0.00  0.00  0.00
  WS02006228WS02006109    1.00   0.00  0.00  0.00  1.00  0.00  0.00  0.00  0.00  0.00
  WS02006229WS02006228    1.00   0.00  0.00  0.00  0.99  0.00  0.00  0.01  0.00  0.00
  WS02006230WS02006229    1.00   0.00  0.00  0.00  0.99  0.00  0.00  0.01  0.01  0.00
  WS02006231WS02006230    1.00   0.00  0.00  0.00  0.27  0.00  0.73  0.00  0.00  0.00
  WS02006232WS02006231    1.00   0.00  0.00  0.00  0.99  0.00  0.01  0.00  0.00  0.00
  WS02006234WS02006232    1.00   0.00  0.00  0.00  1.00  0.00  0.00  0.00  0.18  0.00
  WS02006235WS02006234    1.00   0.00  0.00  0.00  0.57  0.00  0.43  0.00  0.00  0.00
  WS02006238WS02006235    1.00   0.00  0.00  0.00  1.00  0.00  0.00  0.00  0.00  0.00
  WS02006239WS02006238    1.00   0.00  0.00  0.00  1.00  0.00  0.00  0.00  0.36  0.00
  WS02006240WS02006239    1.00   0.00  0.00  0.00  0.51  0.00  0.00  0.49  0.04  0.00
  WS02006242WS02006240    1.00   0.00  0.00  0.00  0.99  0.00  0.01  0.00  0.00  0.00
  WS02006243WS02006242    1.00   0.00  0.00  0.00  0.99  0.00  0.00  0.01  0.66  0.00
  WS02006245WS02006243    1.00   0.00  0.00  0.00  0.50  0.00  0.00  0.50  0.01  0.00
  WS02006247WS02006245    1.00   0.00  0.00  0.00  0.99  0.00  0.00  0.01  0.00  0.00
  WS02006248WS02006247    1.00   0.00  0.00  0.00  0.99  0.00  0.00  0.01  0.19  0.00
  WS02006249WS02006248    1.00   0.00  0.00  0.00  0.34  0.00  0.66  0.00  0.00  0.00
  WS02006251WS02006249    1.00   0.00  0.00  0.00  1.00  0.00  0.00  0.00  0.67  0.00
  WS02006252WS02006251    1.00   0.00  0.64  0.00  0.07  0.00  0.29  0.00  0.00  0.00
  WS02006256WS02006235    1.00   0.00  0.00  0.00  0.99  0.01  0.00  0.00  0.01  0.00
  WSF200WS02003060        1.00   0.00  0.05  0.00  0.49  0.46  0.00  0.00  0.68  0.00
  YS02001580YS02001583    1.00   0.19  0.58  0.00  0.22  0.00  0.00  0.00  0.68  0.00
  YS02001583YS02001586    1.00   0.41  0.31  0.00  0.28  0.00  0.00  0.00  0.68  0.00
  YS02001586YS02001590    1.00   0.13  0.00  0.00  0.44  0.04  0.00  0.39  0.34  0.00
  YS02001590YS02001593    1.00   0.13  0.01  0.00  0.15  0.00  0.72  0.00  0.00  0.00
  YS02001593YS02001596    1.00   0.13  0.00  0.00  0.17  0.01  0.00  0.68  0.03  0.00
  YS02001596YS02001600    1.00   0.14  0.00  0.00  0.23  0.01  0.00  0.63  0.03  0.00
  YS02001600YS02001601    1.00   0.13  0.01  0.00  0.86  0.00  0.00  0.00  0.58  0.00
  YS02001601YS02001602    1.00   0.13  0.01  0.00  0.87  0.00  0.00  0.00  0.00  0.00
  YS02001602YS02001605    1.00   0.13  0.00  0.00  0.86  0.00  0.00  0.00  0.00  0.00
  YS02001605YS02001607    1.00   0.14  0.00  0.00  0.86  0.00  0.00  0.00  0.00  0.00
  YS02001607YS02001610    1.00   0.13  0.01  0.00  0.86  0.00  0.00  0.00  0.01  0.00
  YS02001610YS02001613    1.00   0.13  0.00  0.00  0.87  0.00  0.00  0.00  0.00  0.00
  YS02001613YS02001616    1.00   0.13  0.00  0.00  0.87  0.00  0.00  0.00  0.00  0.00
  YS02001616YS02001619    1.00   0.13  0.00  0.00  0.87  0.00  0.00  0.00  0.00  0.00
  YS02001619YS02001622    1.00   0.13  0.00  0.00  0.87  0.00  0.00  0.00  0.28  0.00
  YS02001622YS02001625    1.00   0.13  0.00  0.00  0.87  0.00  0.00  0.00  0.03  0.00
  YS02001625YS02001629    1.00   0.13  0.04  0.00  0.20  0.00  0.63  0.00  0.00  0.00
  YS02001629YS02163301    1.00   0.15  0.01  0.00  0.84  0.00  0.00  0.00  0.00  0.00
  YS02001633YS02163601    1.00   0.00  0.01  0.00  0.99  0.00  0.00  0.00  0.15  0.00
  YS02001641YS02001644    1.00   0.00  0.01  0.00  0.99  0.00  0.00  0.00  0.00  0.00
  YS02001644YS02001647    1.00   0.00  0.16  0.00  0.84  0.00  0.00  0.00  0.00  0.00
  YS02001647YS02001649    1.00   0.00  0.16  0.00  0.51  0.33  0.00  0.00  0.56  0.00
  YS02001649YS02001757    1.00   0.00  0.00  0.00  0.65  0.35  0.00  0.00  0.50  0.00
  YS02001652YS02001649    1.00   0.00  0.00  0.00  0.97  0.03  0.00  0.00  0.72  0.00
  YS02001655YS02001652    1.00   0.00  0.00  0.00  0.22  0.01  0.00  0.77  0.08  0.00
  YS02001658YS02001655    1.00   0.00  0.14  0.00  0.64  0.22  0.00  0.00  0.71  0.00
  YS02001661YS02001658    1.00   0.14  0.00  0.00  0.47  0.39  0.00  0.00  0.75  0.00
  YS02001664YS02001661    1.00   0.13  0.00  0.00  0.70  0.17  0.00  0.00  0.84  0.00
  YS02001745YS02001748    1.00   0.00  0.00  0.00  0.07  0.01  0.00  0.91  0.05  0.00
  YS02001748YS02001751    1.00   0.00  0.00  0.00  0.80  0.20  0.00  0.00  0.82  0.00
  YS02001751YS02001754    1.00   0.00  0.00  0.00  0.15  0.01  0.00  0.84  0.03  0.00
  YS02001754YS02001757    1.00   0.00  0.00  0.00  1.00  0.00  0.00  0.00  0.82  0.00
  YS02001757CaochengTiaoxuchi    1.00   0.00  0.00  0.00  0.78  0.22  0.00  0.00  0.75  0.00
  YS02001759YS02001757    1.00   0.00  0.00  0.00  0.99  0.01  0.00  0.00  0.61  0.00
  YS02001762YS02001759    1.00   0.00  0.00  0.00  1.00  0.00  0.00  0.00  0.03  0.00
  YS02001765YS02001762    1.00   0.00  0.00  0.00  1.00  0.00  0.00  0.00  0.71  0.00
  YS02001767YS02001765    1.00   0.00  0.00  0.00  1.00  0.00  0.00  0.00  0.00  0.00
  YS02001770YS02001767    1.00   0.00  0.00  0.00  1.00  0.00  0.00  0.00  0.00  0.00
  YS02001774YS02001770    1.00   0.00  0.13  0.00  0.71  0.00  0.15  0.00  0.02  0.00
  YS02001779YS02001774    1.00   0.00  0.00  0.00  1.00  0.00  0.00  0.00  0.76  0.00
  YS02001783YS02001784    1.00   0.00  0.17  0.00  0.83  0.00  0.00  0.00  0.55  0.00
  YS02001784YS02001785    1.00   0.00  0.00  0.00  1.00  0.00  0.00  0.00  0.16  0.00
  YS02001786YS02001788    1.00   0.00  0.00  0.00  0.79  0.21  0.00  0.00  0.00  0.00
  YS02001788YS02001790    1.00   0.00  0.00  0.00  0.20  0.80  0.00  0.00  0.78  0.00
  YS02001790YS02001791    1.00   0.00  0.00  0.00  0.01  0.99  0.00  0.00  0.16  0.00
  YS02001791YS02001793    1.00   0.00  0.00  0.00  0.00  1.00  0.00  0.00  0.01  0.00
  YS02001793JiankangQianchi    1.00   0.00  0.00  0.00  0.42  0.58  0.00  0.00  0.76  0.00
  YS02001882YS02001884    1.00   0.15  0.01  0.00  0.85  0.00  0.00  0.00  0.00  0.00
  YS02001884YS02001887    1.00   0.06  0.05  0.00  0.89  0.00  0.00  0.00  0.00  0.00
  YS02001887YS02001890    1.00   0.00  0.00  0.00  0.97  0.00  0.03  0.00  0.00  0.00
  YS02001890YS02001895    1.00   0.00  0.15  0.00  0.84  0.00  0.00  0.00  0.00  0.00
  YS02001895YS02001898    1.00   0.16  0.00  0.00  0.83  0.00  0.01  0.00  0.00  0.00
  YS02001898YS02001901    1.00   0.16  0.00  0.00  0.84  0.00  0.00  0.00  0.01  0.00
  YS02001901YS02001904    1.00   0.16  0.00  0.00  0.84  0.00  0.00  0.00  0.00  0.00
  YS02001904YS02001907    1.00   0.00  0.16  0.00  0.84  0.00  0.00  0.00  0.00  0.00
  YS02001907YS02006553    1.00   0.00  0.02  0.00  0.98  0.00  0.00  0.00  0.00  0.00
  YS02001910YS02001907    1.00   0.00  0.00  0.00  0.97  0.00  0.00  0.03  0.12  0.00
  YS02001915YS02001910    1.00   0.00  0.00  0.00  0.97  0.03  0.00  0.00  0.13  0.00
  YS02001918YS02001915    1.00   0.00  0.01  0.00  0.98  0.02  0.00  0.00  0.72  0.00
  YS02001920YS02001918    1.00   0.00  0.01  0.00  0.99  0.00  0.00  0.00  0.00  0.00
  YS02001923YS02001920    1.00   0.00  0.00  0.00  1.00  0.00  0.00  0.00  0.90  0.00
  YS02001926YS02001923    1.00   0.00  0.07  0.00  0.08  0.00  0.84  0.00  0.00  0.00
  YS02001929YS02001926    1.00   0.00  0.13  0.00  0.87  0.00  0.00  0.00  0.80  0.00
  YS02006553YS02006556    1.00   0.01  0.00  0.00  0.99  0.00  0.00  0.00  0.03  0.00
  YS02006556YS02006558    1.00   0.00  0.00  0.00  1.00  0.00  0.00  0.00  0.00  0.00
  YS02006558YS02006561    1.00   0.17  0.00  0.00  0.08  0.76  0.00  0.00  0.18  0.00
  YS02006561YS02001783    1.00   0.17  0.00  0.00  0.11  0.72  0.00  0.00  0.67  0.00
  YS02163301YS02001633    1.00   0.00  0.15  0.00  0.85  0.00  0.00  0.00  0.00  0.00
  YS02163601YS02164001    1.00   0.00  0.08  0.00  0.92  0.00  0.00  0.00  0.00  0.00
  YS02164001YS02001641    1.00   0.01  0.08  0.00  0.92  0.00  0.00  0.00  0.05  0.00
  
  
  *************************
  Conduit Surcharge Summary
  *************************
  
  ----------------------------------------------------------------------------
                                                           Hours        Hours 
                         --------- Hours Full --------   Above Full   Capacity
  Conduit                Both Ends  Upstream  Dnstream   Normal Flow   Limited
  ----------------------------------------------------------------------------
  WS02003072WS02003073        0.01      0.01      0.01      0.73         0.01
  WS02004404WS02004405        0.01      0.01      0.01      2.56         0.01
  WS02006109WS02006110        0.01      0.01      2.02      0.01         0.01
  WS02006110WS02006113        0.01      0.01      2.00      0.01         0.01
  WS02006111WS02006112        0.01      0.01      2.05      0.01         0.01
  WS02006228WS02006109        1.95      2.03      1.95      2.28         1.95
  WS02006229WS02006228        1.93      1.96      1.93      2.19         1.93
  WS02006230WS02006229        2.09      2.12      2.09      2.90         2.09
  WS02006231WS02006230        0.01      0.01      0.28      2.66         0.01
  WS02006232WS02006231        0.11      0.11      2.06      0.28         0.01
  WS02006234WS02006232        1.60      1.60      2.06      0.12         0.39
  WS02006235WS02006234        0.84      0.91      1.75      2.51         0.22
  WS02006238WS02006235        1.93      1.93      2.07      0.01         0.11
  WS02006239WS02006238        2.00      2.05      2.01      2.17         1.63
  WS02006240WS02006239        1.92      2.00      1.92      2.18         1.63
  WS02006242WS02006240        1.97      1.97      2.11      2.27         0.05
  WS02006243WS02006242        2.01      2.01      2.08      0.01         0.31
  WS02006245WS02006243        1.99      2.00      1.99      2.24         1.63
  WS02006247WS02006245        1.99      2.02      1.99      2.35         1.83
  WS02006248WS02006247        1.98      1.98      2.01      0.01         0.47
  WS02006249WS02006248        1.97      1.97      1.99      2.35         0.01
  WS02006251WS02006249        1.99      2.00      1.99      2.33         1.52
  WS02006252WS02006251        2.36      2.36      2.36      2.36         0.01
  WS02006256WS02006235        2.16      2.57      4.08      0.52         0.11
  YS02001580YS02001583        0.82      0.83      0.85      0.01         0.01
  YS02001583YS02001586        0.83      0.83      0.94      0.01         0.01
  YS02001586YS02001590        0.95      0.95      1.03      0.01         0.01
  YS02001590YS02001593        1.03      1.03      1.05      1.15         0.01
  YS02001593YS02001596        1.04      1.04      1.15      0.01         0.01
  YS02001596YS02001600        1.21      1.21      1.35      0.01         0.01
  YS02001600YS02001601        1.44      1.44      1.70      0.01         0.01
  YS02001601YS02001602        1.62      1.62      1.73      1.39         0.01
  YS02001602YS02001605        1.59      1.59      1.62      2.37         0.01
  YS02001605YS02001607        1.55      1.59      1.55      1.68         1.55
  YS02001607YS02001610        0.94      0.94      0.98      0.01         0.01
  YS02001610YS02001613        0.93      0.93      0.98      0.01         0.01
  YS02001613YS02001616        0.88      0.88      0.93      0.01         0.01
  YS02001616YS02001619        0.86      0.86      0.88      0.01         0.07
  YS02001619YS02001622        0.85      0.86      0.85      1.09         0.83
  YS02001622YS02001625        0.85      0.85      1.09      0.01         0.01
  YS02001625YS02001629        0.74      0.74      1.09      0.01         0.01
  YS02001629YS02163301        1.06      1.06      1.07      0.44         0.42
  YS02001633YS02163601        1.09      1.09      1.12      0.63         0.62
  YS02001641YS02001644        0.90      0.96      0.90      1.75         0.89
  YS02001644YS02001647        0.63      0.63      0.90      0.04         0.01
  YS02001647YS02001649        0.63      0.63      0.73      0.01         0.01
  YS02001649YS02001757        0.72      0.73      0.75      0.50         0.45
  YS02001652YS02001649        0.54      0.54      0.73      0.01         0.01
  YS02001655YS02001652        0.34      0.34      0.50      0.01         0.01
  YS02001658YS02001655        0.23      0.23      0.34      0.01         0.01
  YS02001661YS02001658        0.09      0.09      0.24      0.01         0.01
  YS02001664YS02001661        0.01      0.01      0.13      0.01         0.01
  YS02001745YS02001748        0.01      0.01      0.14      0.01         0.01
  YS02001748YS02001751        0.20      0.20      0.25      0.01         0.01
  YS02001751YS02001754        0.25      0.25      0.35      0.01         0.01
  YS02001754YS02001757        0.37      0.37      0.75      0.01         0.01
  YS02001757CaochengTiaoxuchi        0.32      0.75      0.90      0.61         0.15
  YS02001759YS02001757        0.64      0.64      0.75      0.09         0.10
  YS02001762YS02001759        0.60      0.60      0.64      0.01         0.03
  YS02001765YS02001762        0.54      0.55      0.60      0.01         0.01
  YS02001767YS02001765        0.50      0.50      0.55      0.03         0.06
  YS02001770YS02001767        0.50      0.52      0.50      0.73         0.47
  YS02001774YS02001770        0.48      0.48      0.60      0.01         0.01
  YS02001779YS02001774        0.37      0.37      0.60      0.01         0.01
  YS02001783YS02001784        0.67      0.70      0.67      0.85         0.67
  YS02001784YS02001785        0.56      0.67      0.56      1.16         0.56
  YS02001786YS02001788        0.01      0.56      0.01      0.97         0.01
  YS02001790YS02001791        0.01      0.01      0.01      0.66         0.01
  YS02001882YS02001884        0.63      0.63      0.64      0.01         0.01
  YS02001884YS02001887        0.67      0.67      0.69      0.01         0.01
  YS02001887YS02001890        0.70      0.70      0.71      0.19         0.01
  YS02001890YS02001895        0.62      0.62      0.73      0.01         0.01
  YS02001895YS02001898        0.62      0.62      0.62      0.01         0.01
  YS02001898YS02001901        0.63      0.63      0.67      0.01         0.01
  YS02001901YS02001904        0.66      0.66      0.67      0.01         0.01
  YS02001904YS02001907        0.66      0.66      0.95      0.01         0.01
  YS02001907YS02006553        1.17      1.17      1.26      0.01         0.01
  YS02001910YS02001907        0.73      0.73      0.91      0.01         0.01
  YS02001915YS02001910        0.63      0.63      0.73      0.01         0.01
  YS02001918YS02001915        0.54      0.54      0.63      0.01         0.01
  YS02001920YS02001918        0.54      0.54      0.56      0.01         0.01
  YS02001923YS02001920        0.49      0.49      0.56      0.01         0.01
  YS02001926YS02001923        0.20      0.20      0.23      0.01         0.01
  YS02001929YS02001926        0.03      0.03      0.23      0.01         0.01
  YS02006553YS02006556        0.82      0.82      0.94      0.01         0.01
  YS02006556YS02006558        0.87      0.87      0.98      0.01         0.01
  YS02006558YS02006561        0.58      0.81      0.58      1.09         0.58
  YS02006561YS02001783        0.50      0.50      0.70      0.01         0.01
  YS02163301YS02001633        1.07      1.07      1.11      0.01         0.02
  YS02163601YS02164001        0.98      0.98      1.12      0.34         0.01
  YS02164001YS02001641        0.96      0.98      0.96      0.94         0.73
  
  
  ***************
  Pumping Summary
  ***************
  
  ---------------------------------------------------------------------------------------------------------
                                                  Min       Avg       Max     Total     Power    % Time Off
                        Percent   Number of      Flow      Flow      Flow    Volume     Usage    Pump Curve
  Pump                 Utilized   Start-Ups       LPS       LPS       LPS  10^6 ltr     Kw-hr    Low   High
  ---------------------------------------------------------------------------------------------------------
  CC-R1                   29.80           3      0.00    683.00    683.00     5.800     99.10    0.0   61.8
  CC-R2                   29.80           3      0.00    683.00    683.00     5.800     99.10    0.0   61.8
  CC-S1                   29.80           3      0.00    200.00    200.00     1.698     11.85    0.0   16.5
  CC-S2                   29.80           3      0.00    200.00    200.00     1.698     11.85    0.0   16.5
  JK-R1                    7.79         316      0.00   1000.00   1000.00     2.219      5.95    0.0    0.0
  JK-R2                    7.79         316      0.00   1000.00   1000.00     2.219      5.95    0.0    0.0
  JK-S                     7.79         316      0.00    300.00    300.00     0.666     15.03    0.0    0.0
  

  Analysis begun on:  Tue Apr 22 10:15:09 2025
  Analysis ended on:  Tue Apr 22 10:15:10 2025
  Total elapsed time: 00:00:01