
  EPA STORM WATER MANAGEMENT MODEL - VERSION 5.2 (Build 5.2.4)
  PYSWMM TOOLKIT API - VERSION v1.0 (2023-11-27)
  ------------------------------------------------------------

  WARNING 04: minimum elevation drop used for Conduit WS02004404WS02004405
  WARNING 03: negative offset ignored for Link YS02001904YS02001907
  
  ****************
  Analysis Options
  ****************
  Flow Units ............... LPS
  Process Models:
    Rainfall/Runoff ........ YES
    RDII ................... NO
    Snowmelt ............... NO
    Groundwater ............ NO
    Flow Routing ........... YES
    Ponding Allowed ........ NO
    Water Quality .......... NO
  Infiltration Method ...... HORTON
  Flow Routing Method ...... DYNWAVE
  Surcharge Method ......... EXTRAN
  Starting Date ............ 08/28/2015 08:00:00
  Ending Date .............. 08/28/2015 16:00:00
  Antecedent Dry Days ...... 8.0
  Report Time Step ......... 00:01:00
  Wet Time Step ............ 00:01:00
  Dry Time Step ............ 00:01:00
  Routing Time Step ........ 30.00 sec
  Variable Time Step ....... YES
  Maximum Trials ........... 8
  Number of Threads ........ 4
  Head Tolerance ........... 0.001500 m
  
  
  **************************        Volume         Depth
  Runoff Quantity Continuity     hectare-m            mm
  **************************     ---------       -------
  Total Precipitation ......         1.519        45.780
  Evaporation Loss .........         0.000         0.000
  Infiltration Loss ........         0.094         2.845
  Surface Runoff ...........         1.391        41.949
  Final Storage ............         0.033         0.995
  Continuity Error (%) .....        -0.020
  
  
  **************************        Volume        Volume
  Flow Routing Continuity        hectare-m      10^6 ltr
  **************************     ---------     ---------
  Dry Weather Inflow .......         0.025         0.248
  Wet Weather Inflow .......         1.391        13.910
  Groundwater Inflow .......         0.000         0.000
  RDII Inflow ..............         0.000         0.000
  External Inflow ..........         0.083         0.825
  External Outflow .........         1.468        14.677
  Flooding Loss ............         0.214         2.143
  Evaporation Loss .........         0.000         0.000
  Exfiltration Loss ........         0.000         0.000
  Initial Stored Volume ....         0.243         2.431
  Final Stored Volume ......         0.076         0.764
  Continuity Error (%) .....        -0.976
  
  
  *************************
  Highest Continuity Errors
  *************************
  Node WS02006256 (-16.22%)
  Node YS02001583 (-8.13%)
  Node YS02001884 (5.10%)
  Node JK-storage (-2.40%)
  Node YS02001774 (1.86%)
  
  
  ***************************
  Time-Step Critical Elements
  ***************************
  Link WS02004404WS02004405 (25.60%)
  Link WS02006238WS02006235 (22.92%)
  Link YS02001793JiankangQianchi (18.95%)
  Link WS02003066WSF200 (11.00%)
  Link YS02006556YS02006558 (3.98%)
  
  
  ********************************
  Highest Flow Instability Indexes
  ********************************
  Link WS02006113WS02006111 (32)
  Link WS02006252WS02006251 (28)
  Link WS02006256WS02006235 (28)
  Link WS02006229WS02006228 (27)
  Link WS02006238WS02006235 (19)
  
  
  *********************************
  Most Frequent Nonconverging Nodes
  *********************************
  Node CC-1 (31.09%)
  Node CC-2 (31.09%)
  Node JK-1 (31.09%)
  Node JK-2 (31.09%)
  Node WSC (31.09%)
  
  
  *************************
  Routing Time Step Summary
  *************************
  Minimum Time Step           :     0.02 sec
  Average Time Step           :     3.32 sec
  Maximum Time Step           :     6.43 sec
  % of Time in Steady State   :     0.00
  Average Iterations per Step :     4.23
  % of Steps Not Converging   :    31.09
  Time Step Frequencies       :
     30.000 - 13.228 sec      :     0.00 %
     13.228 -  5.833 sec      :    23.08 %
      5.833 -  2.572 sec      :    30.40 %
      2.572 -  1.134 sec      :    34.12 %
      1.134 -  0.500 sec      :    12.39 %
  
  
  ***************************
  Subcatchment Runoff Summary
  ***************************
  
  ------------------------------------------------------------------------------------------------------------------------------
                            Total      Total      Total      Total     Imperv       Perv      Total       Total     Peak  Runoff
                           Precip      Runon       Evap      Infil     Runoff     Runoff     Runoff      Runoff   Runoff   Coeff
  Subcatchment                 mm         mm         mm         mm         mm         mm         mm    10^6 ltr      LPS
  ------------------------------------------------------------------------------------------------------------------------------
  sub60                     45.78       0.00       0.00       1.73      39.08       3.77      42.85        0.56   365.90   0.936
  sub61                     45.78       0.00       0.00       2.50      36.86       5.29      42.15        0.77   504.98   0.921
  sub62                     45.78       0.00       0.00       1.15      40.83       2.51      43.34        1.19   707.44   0.947
  sub63                     45.78       0.00       0.00       4.61      31.53       8.67      40.20        0.91   553.08   0.878
  sub64                     45.78       0.00       0.00       2.33      37.70       4.54      42.24        1.01   570.23   0.923
  sub65                     45.78       0.00       0.00       2.02      38.57       3.94      42.51        1.17   636.07   0.929
  sub66                     45.78       0.00       0.00       5.66      31.43       7.62      39.04        1.82   807.93   0.853
  sub67                     45.78       0.00       0.00       1.11      40.87       2.55      43.42        0.81   552.51   0.948
  sub68                     45.78       0.00       0.00       2.07      38.18       4.34      42.52        1.17   725.16   0.929
  sub69                     45.78       0.00       0.00       1.82      38.80       5.05      43.85        1.62   851.40   0.958
  sub70                     45.78       0.00       0.00       6.01      30.05       9.55      39.60        1.14   457.00   0.865
  sub71                     45.78       0.00       0.00       1.18      40.79       2.48      43.27        1.13   620.51   0.945
  sub72                     45.78       0.00       0.00       1.05      41.17       2.16      43.33        0.60   297.34   0.946
  
  
  ******************
  Node Depth Summary
  ******************
  
  ---------------------------------------------------------------------------------
                                 Average  Maximum  Maximum  Time of Max    Reported
                                   Depth    Depth      HGL   Occurrence   Max Depth
  Node                 Type       Meters   Meters   Meters  days hr:min      Meters
  ---------------------------------------------------------------------------------
  WS02003060           JUNCTION     0.19     0.36     5.29     0  02:23        0.36
  WS02003066           JUNCTION     0.16     0.28     5.84     0  02:23        0.28
  WS02003067           JUNCTION     0.43     0.68     6.00     0  02:22        0.68
  WS02003069           JUNCTION     0.20     0.40     4.99     0  02:24        0.40
  WS02003072           JUNCTION     0.26     0.47     4.85     0  02:24        0.47
  WS02003073           JUNCTION     0.14     0.28     4.35     0  02:25        0.28
  WS02004401           JUNCTION     0.52     0.83     6.83     0  02:22        0.82
  WS02004402           JUNCTION     0.55     0.86     6.82     0  02:22        0.85
  WS02004403           JUNCTION     0.57     0.88     6.81     0  02:22        0.87
  WS02004404           JUNCTION     0.64     0.96     6.81     0  02:22        0.96
  WS02004405           JUNCTION     0.63     0.93     6.78     0  02:14        0.93
  WS02004406           JUNCTION     0.65     0.93     6.76     0  02:15        0.93
  WS02004407           JUNCTION     0.14     0.28     6.59     0  02:15        0.28
  WS02004409           JUNCTION     0.30     0.63     6.40     0  02:21        0.63
  WS02004410           JUNCTION     0.33     0.64     6.36     0  02:21        0.64
  WS02004411           JUNCTION     0.35     0.65     6.33     0  02:22        0.65
  WS02004412           JUNCTION     0.38     0.66     6.30     0  02:22        0.66
  WS02004413           JUNCTION     0.53     0.83     6.30     0  02:22        0.83
  WS02006109           JUNCTION     0.58     0.92     7.54     0  02:07        0.92
  WS02006110           JUNCTION     0.59     0.89     7.47     0  02:07        0.88
  WS02006111           JUNCTION     0.15     0.27     6.98     0  02:08        0.27
  WS02006112           JUNCTION     0.67     1.01     6.90     0  02:19        1.01
  WS02006113           JUNCTION     0.22     0.43     7.32     0  02:07        0.43
  WS02006115           JUNCTION     0.40     0.72     6.86     0  02:19        0.72
  WS02006116           JUNCTION     0.49     0.80     6.84     0  02:15        0.80
  WS02006228           JUNCTION     0.57     0.96     7.61     0  02:07        0.94
  WS02006229           JUNCTION     0.54     0.95     7.65     0  02:12        0.95
  WS02006230           JUNCTION     0.53     1.02     7.77     0  02:12        1.01
  WS02006231           JUNCTION     0.34     1.40     8.52     0  02:12        0.73
  WS02006232           JUNCTION     0.46     1.50     8.54     0  02:17        1.30
  WS02006234           JUNCTION     0.38     1.96     9.12     0  02:17        1.92
  WS02006235           JUNCTION     0.42     2.00     9.16     0  02:07        2.00
  WS02006238           JUNCTION     0.44     2.15     9.29     0  02:07        2.15
  WS02006239           JUNCTION     0.41     2.03     9.24     0  02:07        2.03
  WS02006240           JUNCTION     0.39     2.10     9.39     0  02:07        2.10
  WS02006242           JUNCTION     0.45     1.55     8.82     0  02:04        1.55
  WS02006243           JUNCTION     0.39     1.48     8.90     0  02:07        1.48
  WS02006245           JUNCTION     0.39     1.52     9.00     0  02:07        1.52
  WS02006247           JUNCTION     0.41     1.41     8.91     0  02:07        1.41
  WS02006248           JUNCTION     0.38     1.10     8.69     0  02:02        1.10
  WS02006249           JUNCTION     0.41     1.09     8.69     0  02:02        1.09
  WS02006251           JUNCTION     0.40     1.31     8.98     0  02:02        1.27
  WS02006252           JUNCTION     0.27     1.50     9.74     0  00:00        0.81
  WS02006256           JUNCTION     0.75     2.35     9.28     0  00:00        2.35
  WSF200               JUNCTION     0.13     0.27     5.51     0  02:23        0.27
  YS02001580           JUNCTION     0.12     1.05     9.59     0  01:58        0.77
  YS02001583           JUNCTION     0.15     1.14     9.64     0  01:58        0.82
  YS02001586           JUNCTION     0.25     1.13     9.30     0  01:57        1.13
  YS02001590           JUNCTION     0.35     1.40     9.26     0  01:56        1.37
  YS02001593           JUNCTION     0.29     1.36     9.23     0  01:58        1.29
  YS02001596           JUNCTION     0.39     1.71     9.12     0  01:58        1.65
  YS02001600           JUNCTION     0.48     1.87     9.00     0  01:56        1.87
  YS02001601           JUNCTION     0.66     2.06     8.90     0  01:56        2.06
  YS02001602           JUNCTION     0.56     1.87     8.77     0  01:56        1.87
  YS02001605           JUNCTION     0.52     1.78     8.68     0  01:57        1.77
  YS02001607           JUNCTION     0.48     1.65     8.50     0  02:02        1.64
  YS02001610           JUNCTION     0.52     1.68     8.48     0  01:57        1.68
  YS02001613           JUNCTION     0.48     1.68     8.52     0  02:02        1.68
  YS02001616           JUNCTION     0.42     1.61     8.52     0  01:58        1.60
  YS02001619           JUNCTION     0.40     1.61     8.54     0  02:02        1.61
  YS02001622           JUNCTION     0.38     1.56     8.47     0  02:00        1.55
  YS02001625           JUNCTION     0.62     1.78     8.38     0  01:57        1.78
  YS02001629           JUNCTION     0.51     1.85     8.40     0  01:57        1.85
  YS02001633           JUNCTION     0.57     2.08     8.53     0  02:02        2.08
  YS02001641           JUNCTION     0.53     2.08     8.52     0  02:02        2.08
  YS02001644           JUNCTION     0.52     1.92     8.35     0  02:01        1.92
  YS02001647           JUNCTION     0.30     1.80     8.41     0  02:02        1.69
  YS02001649           JUNCTION     0.33     1.99     8.38     0  02:02        1.84
  YS02001652           JUNCTION     0.22     1.93     8.52     0  02:02        1.67
  YS02001655           JUNCTION     0.15     2.10     8.95     0  02:02        1.44
  YS02001658           JUNCTION     0.11     2.20     9.34     0  02:02        1.17
  YS02001661           JUNCTION     0.14     0.96     8.37     0  02:02        0.94
  YS02001664           JUNCTION     0.06     0.41     8.34     0  02:03        0.33
  YS02001745           JUNCTION     0.06     0.66     8.18     0  02:02        0.63
  YS02001748           JUNCTION     0.09     1.85     8.92     0  02:02        1.01
  YS02001751           JUNCTION     0.11     1.97     8.85     0  02:01        1.20
  YS02001754           JUNCTION     0.17     1.98     8.59     0  02:01        1.48
  YS02001757           JUNCTION     0.33     1.94     8.20     0  02:02        1.83
  YS02001759           JUNCTION     0.28     1.89     8.26     0  02:02        1.82
  YS02001762           JUNCTION     0.27     1.95     8.35     0  02:02        1.82
  YS02001765           JUNCTION     0.25     1.93     8.38     0  02:02        1.84
  YS02001767           JUNCTION     0.24     1.86     8.35     0  02:01        1.86
  YS02001770           JUNCTION     0.26     1.95     8.44     0  02:00        1.91
  YS02001774           JUNCTION     0.32     2.05     8.47     0  02:00        1.97
  YS02001779           JUNCTION     0.16     1.68     8.37     0  02:00        1.68
  YS02001783           JUNCTION     0.30     1.40     7.54     0  02:00        1.22
  YS02001784           JUNCTION     0.31     1.23     7.29     0  02:00        1.11
  YS02001786           JUNCTION     0.26     0.97     7.00     0  02:00        0.87
  YS02001788           JUNCTION     0.19     0.62     6.60     0  02:00        0.62
  YS02001790           JUNCTION     0.22     0.72     6.37     0  02:01        0.72
  YS02001791           JUNCTION     0.14     0.44     5.91     0  02:03        0.44
  YS02001793           JUNCTION     0.07     0.25     5.08     0  02:06        0.24
  YS02001882           JUNCTION     0.36     1.74     8.46     0  01:59        1.62
  YS02001884           JUNCTION     0.45     1.82     8.44     0  01:59        1.72
  YS02001887           JUNCTION     0.52     1.86     8.39     0  01:59        1.80
  YS02001890           JUNCTION     0.55     1.81     8.32     0  01:59        1.81
  YS02001895           JUNCTION     0.34     1.57     8.32     0  02:00        1.56
  YS02001898           JUNCTION     0.34     1.58     8.31     0  02:00        1.55
  YS02001901           JUNCTION     0.44     1.69     8.30     0  02:02        1.69
  YS02001904           JUNCTION     0.43     1.65     8.28     0  02:00        1.63
  YS02001907           JUNCTION     0.72     1.96     8.25     0  02:00        1.96
  YS02001910           JUNCTION     0.54     1.98     8.49     0  02:00        1.95
  YS02001915           JUNCTION     0.37     1.93     8.65     0  02:00        1.89
  YS02001918           JUNCTION     0.21     1.81     8.88     0  02:00        1.81
  YS02001920           JUNCTION     0.29     2.14     9.15     0  02:00        2.00
  YS02001923           JUNCTION     0.16     2.03     9.29     0  02:00        1.86
  YS02001926           JUNCTION     0.19     1.90     9.35     0  02:00        1.76
  YS02001929           JUNCTION     0.11     1.78     9.47     0  02:00        1.54
  YS02006553           JUNCTION     0.72     2.01     8.30     0  02:00        1.96
  YS02006556           JUNCTION     0.70     2.03     8.34     0  02:00        1.98
  YS02006558           JUNCTION     0.74     2.09     8.36     0  02:00        2.00
  YS02006561           JUNCTION     0.18     1.11     7.77     0  02:00        0.88
  YS02163301           JUNCTION     0.53     1.99     8.50     0  02:02        1.99
  YS02163601           JUNCTION     0.60     2.08     8.48     0  02:02        2.08
  YS02164001           JUNCTION     0.53     2.10     8.56     0  02:02        2.10
  CC-1                 OUTFALL      0.00     0.00     0.00     0  00:00        0.00
  CC-2                 OUTFALL      0.00     0.00     0.00     0  00:00        0.00
  JK-1                 OUTFALL      0.00     0.00     0.00     0  00:00        0.00
  JK-2                 OUTFALL      0.00     0.00     0.00     0  00:00        0.00
  WSC                  OUTFALL      0.14     0.28     0.95     0  02:25        0.28
  CC-storage           STORAGE      0.28     0.80     6.30     0  00:00        0.76
  JK-storage           STORAGE      0.11     2.99     3.79     0  00:00        0.68
  
  
  *******************
  Node Inflow Summary
  *******************
  
  -------------------------------------------------------------------------------------------------
                                  Maximum  Maximum                  Lateral       Total        Flow
                                  Lateral    Total  Time of Max      Inflow      Inflow     Balance
                                   Inflow   Inflow   Occurrence      Volume      Volume       Error
  Node                 Type           LPS      LPS  days hr:min    10^6 ltr    10^6 ltr     Percent
  -------------------------------------------------------------------------------------------------
  WS02003060           JUNCTION     16.53   496.41     0  02:23       0.471        3.31       0.055
  WS02003066           JUNCTION      0.00   479.75     0  02:22           0        2.85       0.046
  WS02003067           JUNCTION      0.00   479.68     0  02:22           0        2.85       0.139
  WS02003069           JUNCTION      0.32   496.52     0  02:23     0.00912        3.32       0.106
  WS02003072           JUNCTION      0.00   496.05     0  02:24           0        3.32       0.197
  WS02003073           JUNCTION      1.82   497.63     0  02:24      0.0519        3.36       0.146
  WS02004401           JUNCTION      0.00   484.35     0  02:13           0        2.95       0.340
  WS02004402           JUNCTION      0.00   484.85     0  02:14           0        2.94       0.346
  WS02004403           JUNCTION      0.00   488.17     0  02:23           0        2.92       0.340
  WS02004404           JUNCTION      0.16   501.78     0  02:22     0.00462        2.92       0.261
  WS02004405           JUNCTION      0.04   543.95     0  02:23     0.00109        2.91       0.382
  WS02004406           JUNCTION      0.00   486.14     0  02:22           0         2.9       0.714
  WS02004407           JUNCTION      0.00   482.20     0  02:15           0        2.88       0.029
  WS02004409           JUNCTION      0.00   482.01     0  02:15           0        2.88       0.076
  WS02004410           JUNCTION      0.00   480.59     0  02:21           0        2.88       0.140
  WS02004411           JUNCTION      0.00   480.30     0  02:21           0        2.87       0.180
  WS02004412           JUNCTION      0.00   480.26     0  02:22           0        2.87       0.243
  WS02004413           JUNCTION      0.00   480.16     0  02:22           0        2.86       0.459
  WS02006109           JUNCTION      1.23   492.77     0  02:07      0.0351        2.99       0.217
  WS02006110           JUNCTION      0.00   493.15     0  02:12           0        2.98       0.213
  WS02006111           JUNCTION      0.00   506.19     0  02:07           0        2.98       0.036
  WS02006112           JUNCTION      0.00   490.94     0  02:07           0        2.97       0.678
  WS02006113           JUNCTION      0.00   493.05     0  02:07           0        2.98       0.045
  WS02006115           JUNCTION      0.00   487.62     0  02:13           0        2.95       0.229
  WS02006116           JUNCTION      0.00   486.53     0  02:13           0        2.95       0.089
  WS02006228           JUNCTION      0.00   491.55     0  02:07           0        2.96       0.073
  WS02006229           JUNCTION      0.00   490.88     0  02:07           0        2.96       0.189
  WS02006230           JUNCTION     10.28   538.51     0  02:12       0.293        2.97       0.173
  WS02006231           JUNCTION      0.00   546.15     0  02:03           0        2.67      -0.077
  WS02006232           JUNCTION      0.00   541.85     0  02:03           0        2.68       0.332
  WS02006234           JUNCTION      0.00   544.58     0  02:03           0        2.67      -0.464
  WS02006235           JUNCTION      0.00   570.43     0  01:59           0        2.73       0.086
  WS02006238           JUNCTION      0.00   424.63     0  02:25           0        2.45      -0.232
  WS02006239           JUNCTION      0.00   421.61     0  02:29           0        2.39      -0.359
  WS02006240           JUNCTION      0.00   417.27     0  02:33           0        2.37      -0.274
  WS02006242           JUNCTION      0.00   418.42     0  02:03           0        2.37      -0.055
  WS02006243           JUNCTION      0.00   418.93     0  02:33           0        2.37       0.115
  WS02006245           JUNCTION      0.00   419.16     0  02:33           0        2.39       0.765
  WS02006247           JUNCTION      0.00   419.85     0  02:33           0        2.39      -0.012
  WS02006248           JUNCTION      0.00   421.14     0  02:33           0         2.4       0.125
  WS02006249           JUNCTION      0.00   468.13     0  01:56           0        2.42       0.648
  WS02006251           JUNCTION      0.08   403.16     0  03:20     0.00219        2.41      -0.045
  WS02006252           JUNCTION      0.00   400.00     0  00:00           0        2.41      -0.088
  WS02006256           JUNCTION      0.00   316.35     0  02:16           0       0.476     -13.955
  WSF200               JUNCTION      0.00   479.72     0  02:23           0        2.84       0.012
  YS02001580           JUNCTION      0.00   125.80     0  01:57           0      0.0044       2.309
  YS02001583           JUNCTION      0.00   205.07     0  01:58           0       0.015      -7.521
  YS02001586           JUNCTION    457.00   457.07     0  02:05        1.14        1.16       0.122
  YS02001590           JUNCTION      0.00   318.04     0  02:16           0        1.05      -0.031
  YS02001593           JUNCTION      0.00   318.02     0  02:16           0        1.05       0.026
  YS02001596           JUNCTION      0.00   318.05     0  02:16           0        1.05       0.002
  YS02001600           JUNCTION      0.00   318.01     0  02:16           0        1.05       0.024
  YS02001601           JUNCTION    851.40  1168.97     0  02:03        1.62        2.68       0.041
  YS02001602           JUNCTION      0.00   540.92     0  01:57           0        1.95       0.030
  YS02001605           JUNCTION      0.00   541.10     0  01:57           0        1.89       0.030
  YS02001607           JUNCTION      0.00   541.13     0  01:57           0        1.89       0.113
  YS02001610           JUNCTION      0.00   537.90     0  01:57           0        1.89       0.129
  YS02001613           JUNCTION      0.00   542.90     0  01:57           0        1.69       0.104
  YS02001616           JUNCTION      0.00   549.86     0  01:57           0        1.69       0.024
  YS02001619           JUNCTION    807.93   947.08     0  01:57        1.82        3.51       0.010
  YS02001622           JUNCTION      0.00   939.08     0  01:57           0        3.51      -0.004
  YS02001625           JUNCTION      0.00   942.28     0  01:57           0        3.51       0.259
  YS02001629           JUNCTION      0.00   943.26     0  01:57           0        3.18       0.024
  YS02001633           JUNCTION    636.27  1423.03     0  01:59        1.18        4.35       0.083
  YS02001641           JUNCTION      0.00  1418.85     0  01:59           0        4.35       0.068
  YS02001644           JUNCTION    570.27  1862.67     0  01:59        1.02        5.36       0.062
  YS02001647           JUNCTION      0.00  1862.92     0  01:59           0        5.34       0.007
  YS02001649           JUNCTION      0.00  2156.39     0  01:59           0        6.26       0.008
  YS02001652           JUNCTION      0.00   642.22     0  02:03           0       0.916      -0.102
  YS02001655           JUNCTION      0.15   641.97     0  02:03     0.00439       0.917       0.077
  YS02001658           JUNCTION      0.00   759.39     0  02:02           0       0.912      -0.029
  YS02001661           JUNCTION      0.00   709.25     0  02:03           0       0.912       0.035
  YS02001664           JUNCTION    553.08   553.08     0  02:02       0.912       0.912      -0.010
  YS02001745           JUNCTION    365.90   365.90     0  02:02       0.563       0.563       0.180
  YS02001748           JUNCTION      0.04   611.09     0  02:02     0.00128       0.565      -0.238
  YS02001751           JUNCTION      0.01   494.32     0  02:01    0.000313        0.57       0.071
  YS02001754           JUNCTION      0.26   427.53     0  02:04     0.00741       0.582      -0.164
  YS02001757           JUNCTION      0.00  3320.27     0  02:03           0        8.81       0.030
  YS02001759           JUNCTION    505.02  1231.11     0  02:01       0.774        1.98      -0.010
  YS02001762           JUNCTION      0.00   730.77     0  02:01           0         1.2       0.025
  YS02001765           JUNCTION      0.00   724.40     0  02:01           0         1.2       0.018
  YS02001767           JUNCTION      0.54   720.29     0  02:02      0.0152         1.2       0.016
  YS02001770           JUNCTION    707.60   714.09     0  02:02        1.19        1.23      -0.019
  YS02001774           JUNCTION      0.00   394.35     0  02:00           0      0.0623       1.891
  YS02001779           JUNCTION      0.01   401.53     0  02:00    0.000142      0.0201      -2.778
  YS02001783           JUNCTION      0.00  1154.88     0  02:01           0        3.29       0.009
  YS02001784           JUNCTION      1.06  1155.91     0  02:01      0.0302        3.32       0.017
  YS02001786           JUNCTION      0.06  1156.32     0  02:01      0.0016        3.32       0.021
  YS02001788           JUNCTION      0.07  1156.83     0  02:00     0.00202        3.32       0.009
  YS02001790           JUNCTION      0.15  1172.78     0  02:00     0.00442        3.32       0.002
  YS02001791           JUNCTION      0.00  1283.87     0  02:04           0        3.32       0.001
  YS02001793           JUNCTION      0.00  1247.69     0  02:03           0        3.32      -0.041
  YS02001882           JUNCTION      0.00    46.82     0  01:58           0      0.0124       5.740
  YS02001884           JUNCTION      0.00    79.57     0  01:58           0      0.0479       5.377
  YS02001887           JUNCTION    552.96   553.66     0  02:02        0.82       0.853       0.528
  YS02001890           JUNCTION      0.00   553.94     0  02:02           0       0.812       0.638
  YS02001895           JUNCTION      0.00   513.00     0  02:03           0       0.799       0.198
  YS02001898           JUNCTION      0.00   512.87     0  02:03           0       0.798       0.046
  YS02001901           JUNCTION      0.00   513.06     0  02:03           0         0.8       0.419
  YS02001904           JUNCTION      0.00   512.90     0  02:03           0       0.804       0.356
  YS02001907           JUNCTION      0.00  1543.80     0  02:01           0         2.6       0.696
  YS02001910           JUNCTION      0.00  1042.18     0  02:01           0         1.8       0.404
  YS02001915           JUNCTION    620.53  1041.93     0  02:01        1.13        1.85       0.077
  YS02001918           JUNCTION      0.00   487.16     0  02:00           0       0.755       0.001
  YS02001920           JUNCTION      2.87   485.26     0  02:00      0.0818       0.736       0.159
  YS02001923           JUNCTION      0.04   518.87     0  01:59     0.00107       0.637      -0.125
  YS02001926           JUNCTION      0.05   802.09     0  02:00     0.00149       0.616      -0.111
  YS02001929           JUNCTION    297.34   635.51     0  02:00       0.596         0.6      -0.002
  YS02006553           JUNCTION      0.00   792.00     0  02:15           0        2.14       0.561
  YS02006556           JUNCTION      0.00   792.01     0  02:15           0        2.15       0.391
  YS02006558           JUNCTION    726.04  1170.75     0  02:00        1.19        3.32       0.101
  YS02006561           JUNCTION      0.00  1169.15     0  02:00           0        3.29       0.002
  YS02163301           JUNCTION      0.00   936.34     0  02:17           0        3.18       0.053
  YS02163601           JUNCTION      0.11  1421.90     0  01:59     0.00313        4.35       0.118
  YS02164001           JUNCTION      0.00  1420.58     0  01:59           0        4.35       0.057
  CC-1                 OUTFALL       0.00   683.00     0  00:00           0        4.11       0.000
  CC-2                 OUTFALL       0.00   683.00     0  00:00           0        4.11       0.000
  JK-1                 OUTFALL       0.00  1000.00     0  00:00           0        1.54       0.000
  JK-2                 OUTFALL       0.00  1000.00     0  00:00           0        1.54       0.000
  WSC                  OUTFALL       0.00   497.50     0  02:25           0        3.36       0.000
  CC-storage           STORAGE       0.00  3320.50     0  02:03           0          11      -0.366
  JK-storage           STORAGE       0.00  1386.72     0  02:06           0        3.47      -2.346
  
  
  **********************
  Node Surcharge Summary
  **********************
  
  Surcharging occurs when water rises above the top of the highest conduit.
  ---------------------------------------------------------------------
                                               Max. Height   Min. Depth
                                   Hours       Above Crown    Below Rim
  Node                 Type      Surcharged         Meters       Meters
  ---------------------------------------------------------------------
  WS02006109           JUNCTION        1.17          0.103        1.717
  WS02006112           JUNCTION        0.15          0.013        1.667
  WS02006228           JUNCTION        1.15          0.126        2.074
  WS02006229           JUNCTION        1.18          0.153        2.297
  WS02006231           JUNCTION        0.06          0.686        0.844
  WS02006232           JUNCTION        1.26          0.803        0.677
  WS02006234           JUNCTION        0.52          1.240        0.000
  WS02006235           JUNCTION        1.05          1.290        0.000
  WS02006238           JUNCTION        1.22          1.430        0.000
  WS02006239           JUNCTION        1.14          1.290        0.000
  WS02006240           JUNCTION        1.16          1.390        0.000
  WS02006242           JUNCTION        1.28          0.820        0.000
  WS02006243           JUNCTION        1.20          0.770        0.000
  WS02006245           JUNCTION        1.19          0.805        0.045
  WS02006247           JUNCTION        1.22          0.699        0.061
  WS02006248           JUNCTION        1.18          0.380        0.000
  WS02006249           JUNCTION        1.20          0.390        0.000
  WS02006251           JUNCTION        0.30          0.283        0.897
  WS02006252           JUNCTION        1.67          1.100        0.000
  WS02006256           JUNCTION        4.16          2.050        0.000
  YS02001580           JUNCTION        0.41          0.450        0.000
  YS02001583           JUNCTION        0.42          0.500        0.000
  YS02001586           JUNCTION        0.52          0.510        0.000
  YS02001590           JUNCTION        0.59          0.750        0.000
  YS02001593           JUNCTION        0.59          0.744        0.096
  YS02001596           JUNCTION        0.69          0.975        0.095
  YS02001600           JUNCTION        0.82          1.190        0.000
  YS02001601           JUNCTION        1.21          1.440        0.000
  YS02001602           JUNCTION        1.07          1.270        0.000
  YS02001605           JUNCTION        1.01          1.180        0.000
  YS02001607           JUNCTION        0.53          0.651        0.029
  YS02001610           JUNCTION        0.55          0.680        0.000
  YS02001613           JUNCTION        0.52          0.680        0.020
  YS02001616           JUNCTION        0.48          0.606        0.004
  YS02001619           JUNCTION        0.46          0.610        0.000
  YS02001622           JUNCTION        0.45          0.563        0.057
  YS02001625           JUNCTION        0.64          0.780        0.000
  YS02001629           JUNCTION        0.36          0.470        0.000
  YS02001633           JUNCTION        0.65          1.060        0.000
  YS02001641           JUNCTION        0.54          1.079        0.021
  YS02001644           JUNCTION        0.48          0.920        0.000
  YS02001647           JUNCTION        0.26          0.801        0.099
  YS02001649           JUNCTION        0.29          0.990        0.060
  YS02001652           JUNCTION        0.19          0.896        0.234
  YS02001655           JUNCTION        0.12          1.100        0.100
  YS02001658           JUNCTION        0.04          1.200        0.100
  YS02001748           JUNCTION        0.01          0.766        0.424
  YS02001751           JUNCTION        0.06          0.968        0.232
  YS02001754           JUNCTION        0.12          0.931        0.219
  YS02001757           JUNCTION        0.27          0.940        0.270
  YS02001759           JUNCTION        0.24          0.894        0.316
  YS02001762           JUNCTION        0.22          0.954        0.196
  YS02001765           JUNCTION        0.20          0.930        0.170
  YS02001767           JUNCTION        0.19          0.864        0.166
  YS02001770           JUNCTION        0.18          0.920        0.000
  YS02001774           JUNCTION        0.22          1.050        0.000
  YS02001779           JUNCTION        0.14          0.680        0.000
  YS02001783           JUNCTION        0.40          0.599        1.001
  YS02001784           JUNCTION        0.38          0.426        1.064
  YS02001786           JUNCTION        0.29          0.169        1.261
  YS02001882           JUNCTION        0.36          0.741        0.089
  YS02001884           JUNCTION        0.37          0.760        0.110
  YS02001887           JUNCTION        0.40          0.806        0.144
  YS02001890           JUNCTION        0.41          0.760        0.000
  YS02001895           JUNCTION        0.35          0.573        0.177
  YS02001898           JUNCTION        0.34          0.546        0.194
  YS02001901           JUNCTION        0.38          0.688        0.182
  YS02001904           JUNCTION        0.38          0.648        0.202
  YS02001907           JUNCTION        0.59          0.950        0.000
  YS02001910           JUNCTION        0.43          0.981        0.119
  YS02001915           JUNCTION        0.35          0.932        0.068
  YS02001918           JUNCTION        0.28          0.810        0.000
  YS02001920           JUNCTION        0.29          1.140        0.000
  YS02001923           JUNCTION        0.01          0.820        0.000
  YS02001926           JUNCTION        0.01          0.900        0.000
  YS02001929           JUNCTION        0.01          0.780        0.000
  YS02006553           JUNCTION        0.60          1.012        0.178
  YS02006556           JUNCTION        0.51          0.992        0.358
  YS02006558           JUNCTION        0.50          0.992        0.408
  YS02006561           JUNCTION        0.24          0.308        0.842
  YS02163301           JUNCTION        0.63          0.987        0.043
  YS02163601           JUNCTION        0.67          1.080        0.000
  YS02164001           JUNCTION        0.55          1.100        0.000
  
  
  *********************
  Node Flooding Summary
  *********************
  
  Flooding refers to all water that overflows a node, whether it ponds or not.
  --------------------------------------------------------------------------
                                                             Total   Maximum
                                 Maximum   Time of Max       Flood    Ponded
                        Hours       Rate    Occurrence      Volume     Depth
  Node                 Flooded       LPS   days hr:min    10^6 ltr    Meters
  --------------------------------------------------------------------------
  WS02006234              0.01     47.77      0  02:17       0.000     0.000
  WS02006235              0.01     27.55      0  02:07       0.000     0.000
  WS02006238              0.01     23.48      0  02:07       0.000     0.000
  WS02006239              0.01     10.10      0  02:07       0.000     0.000
  WS02006240              0.01     10.90      0  02:07       0.000     0.000
  WS02006242              0.01     31.43      0  02:21       0.000     0.000
  WS02006243              0.01      6.06      0  02:07       0.000     0.000
  WS02006248              0.09     25.61      0  02:04       0.005     0.000
  WS02006249              0.12     16.82      0  02:07       0.002     0.000
  WS02006252              0.01    273.34      0  01:55       0.001     0.000
  WS02006256              0.44    299.69      0  02:17       0.264     0.000
  YS02001580              0.01     95.47      0  01:58       0.000     0.000
  YS02001583              0.01    114.89      0  01:58       0.000     0.000
  YS02001586              0.31    139.64      0  02:05       0.088     0.000
  YS02001590              0.01     53.00      0  01:56       0.000     0.000
  YS02001600              0.01      3.69      0  01:58       0.000     0.000
  YS02001601              0.45    771.18      0  02:03       0.722     0.000
  YS02001602              0.31     62.15      0  02:02       0.060     0.000
  YS02001605              0.01      4.78      0  01:57       0.000     0.000
  YS02001610              0.26    310.34      0  02:05       0.195     0.000
  YS02001619              0.01      0.61      0  02:02       0.000     0.000
  YS02001625              0.21    880.88      0  02:04       0.323     0.000
  YS02001629              0.05    171.33      0  01:57       0.005     0.000
  YS02001633              0.01      0.32      0  02:02       0.000     0.000
  YS02001644              0.03    129.14      0  02:03       0.009     0.000
  YS02001770              0.01     45.61      0  02:00       0.000     0.000
  YS02001774              0.01     30.09      0  02:00       0.000     0.000
  YS02001779              0.01    338.50      0  02:00       0.003     0.000
  YS02001890              0.06     59.20      0  02:01       0.008     0.000
  YS02001907              0.23   1111.50      0  02:01       0.454     0.000
  YS02001918              0.01    221.14      0  02:01       0.003     0.000
  YS02001920              0.01     67.66      0  02:00       0.000     0.000
  YS02001923              0.01    222.91      0  02:00       0.001     0.000
  YS02001926              0.01    550.30      0  02:00       0.003     0.000
  YS02001929              0.01     76.48      0  02:00       0.000     0.000
  YS02163601              0.01      0.87      0  02:02       0.000     0.000
  YS02164001              0.01      0.92      0  02:02       0.000     0.000
  
  
  **********************
  Storage Volume Summary
  **********************
  
  ------------------------------------------------------------------------------------------------
                         Average    Avg   Evap  Exfil     Maximum    Max    Time of Max    Maximum
                          Volume   Pcnt   Pcnt   Pcnt      Volume   Pcnt     Occurrence    Outflow
  Storage Unit           1000 m³   Full   Loss   Loss     1000 m³   Full    days hr:min        LPS
  ------------------------------------------------------------------------------------------------
  CC-storage               0.788   12.3    0.0    0.0       2.229   34.8       0  00:00    1783.53
  JK-storage               0.005    1.8    0.0    0.0       0.150   51.6       0  00:00    2300.00
  
  
  ***********************
  Outfall Loading Summary
  ***********************
  
  -----------------------------------------------------------
                         Flow       Avg       Max       Total
                         Freq      Flow      Flow      Volume
  Outfall Node           Pcnt       LPS       LPS    10^6 ltr
  -----------------------------------------------------------
  CC-1                  42.18    683.00    683.00       4.114
  CC-2                  42.18    683.00    683.00       4.114
  JK-1                  11.76   1000.00   1000.00       1.545
  JK-2                  11.76   1000.00   1000.00       1.545
  WSC                   99.93    175.09    497.50       3.359
  -----------------------------------------------------------
  System                41.56   3541.09   3863.50      14.677
  
  
  ********************
  Link Flow Summary
  ********************
  
  -----------------------------------------------------------------------------
                                 Maximum  Time of Max   Maximum    Max/    Max/
                                  |Flow|   Occurrence   |Veloc|    Full    Full
  Link                 Type          LPS  days hr:min     m/sec    Flow   Depth
  -----------------------------------------------------------------------------
  1                    CONDUIT    497.50     0  02:25      2.74    0.17    0.28
  WS02003060WS02003069 CONDUIT    496.20     0  02:23      1.60    0.19    0.32
  WS02003066WSF200     CONDUIT    479.72     0  02:23      2.77    0.08    0.21
  WS02003067WS02003066 CONDUIT    479.75     0  02:22      1.13    0.15    0.40
  WS02003069WS02003072 CONDUIT    496.05     0  02:24      1.32    0.24    0.37
  WS02003072WS02003073 CONDUIT    495.81     0  02:24      1.38    1.07    0.35
  WS02004401WS02004402 CONDUIT    484.85     0  02:14      1.22    0.58    0.84
  WS02004402WS02004403 CONDUIT    488.17     0  02:23      1.24    0.70    0.86
  WS02004403WS02004404 CONDUIT    501.62     0  02:22      1.24    0.36    0.92
  WS02004404WS02004405 CONDUIT    543.91     0  02:23      1.45    5.33    0.94
  WS02004405WS02004406 CONDUIT    486.14     0  02:22      1.46    0.96    0.93
  WS02004406WS02004407 CONDUIT    482.20     0  02:15      0.98    0.22    0.60
  WS02004407WS02004409 CONDUIT    482.01     0  02:15      1.59    0.17    0.45
  WS02004409WS02004410 CONDUIT    480.59     0  02:21      1.06    0.62    0.63
  WS02004410WS02004411 CONDUIT    480.30     0  02:21      1.13    0.66    0.65
  WS02004411WS02004412 CONDUIT    480.26     0  02:22      1.20    0.68    0.66
  WS02004412WS02004413 CONDUIT    480.16     0  02:22      1.22    0.32    0.74
  WS02004413WS02003067 CONDUIT    479.68     0  02:22      1.04    0.21    0.57
  WS02006109WS02006110 CONDUIT    493.15     0  02:12      0.98    0.95    0.99
  WS02006110WS02006113 CONDUIT    493.05     0  02:07      1.19    0.45    0.77
  WS02006111WS02006112 CONDUIT    490.94     0  02:07      1.95    0.23    0.66
  WS02006112WS02006115 CONDUIT    487.62     0  02:13      0.82    0.29    0.85
  WS02006113WS02006111 CONDUIT    506.19     0  02:07      2.38    0.61    0.44
  WS02006115WS02006116 CONDUIT    486.53     0  02:13      1.29    0.62    0.73
  WS02006116WS02004401 CONDUIT    484.35     0  02:13      1.21    0.67    0.81
  WS02006228WS02006109 CONDUIT    491.54     0  02:07      1.06    2.15    1.00
  WS02006229WS02006228 CONDUIT    491.55     0  02:07      1.12    1.63    1.00
  WS02006230WS02006229 CONDUIT    490.88     0  02:07      1.28   10.92    1.00
  WS02006231WS02006230 CONDUIT    528.23     0  02:12      1.43    8.01    0.95
  WS02006232WS02006231 CONDUIT    546.15     0  02:03      1.43    1.14    1.00
  WS02006234WS02006232 CONDUIT    541.85     0  02:03      1.41    1.10    1.00
  WS02006235WS02006234 CONDUIT    544.58     0  02:03      1.42    5.75    1.00
  WS02006238WS02006235 CONDUIT    439.74     0  02:33      1.45    0.98    1.00
  WS02006239WS02006238 CONDUIT    424.63     0  02:25      1.16    1.36    1.00
  WS02006240WS02006239 CONDUIT    421.61     0  02:29      1.25    1.33    1.00
  WS02006242WS02006240 CONDUIT    417.27     0  02:33      1.16    1.66    1.00
  WS02006243WS02006242 CONDUIT    418.42     0  02:03      1.43    0.89    1.00
  WS02006245WS02006243 CONDUIT    418.93     0  02:33      1.44    1.24    1.00
  WS02006247WS02006245 CONDUIT    419.16     0  02:33      1.43    3.32    1.00
  WS02006248WS02006247 CONDUIT    419.85     0  02:33      1.45    0.91    1.00
  WS02006249WS02006248 CONDUIT    421.14     0  02:33      1.40    2.31    1.00
  WS02006251WS02006249 CONDUIT    468.13     0  01:56      1.99    1.35    1.00
  WS02006252WS02006251 CONDUIT    403.08     0  03:20     18.84    1.48    1.00
  WS02006256WS02006235 CONDUIT    288.91     0  00:00      4.23    3.06    1.00
  WSF200WS02003060     CONDUIT    479.88     0  02:23      2.00    0.11    0.26
  YS02001580YS02001583 CONDUIT    125.80     0  01:57      0.78    0.49    1.00
  YS02001583YS02001586 CONDUIT    179.30     0  01:57      0.78    0.27    1.00
  YS02001586YS02001590 CONDUIT    318.04     0  02:16      1.26    0.56    1.00
  YS02001590YS02001593 CONDUIT    318.02     0  02:16      1.12    2.00    1.00
  YS02001593YS02001596 CONDUIT    318.05     0  02:16      1.74    0.50    1.00
  YS02001596YS02001600 CONDUIT    318.01     0  02:16      1.21    0.62    1.00
  YS02001600YS02001601 CONDUIT    317.95     0  02:16      1.12    0.55    1.00
  YS02001601YS02001602 CONDUIT    540.92     0  01:57      1.91    1.95    1.00
  YS02001602YS02001605 CONDUIT    541.10     0  01:57      1.91   11.45    1.00
  YS02001605YS02001607 CONDUIT    541.13     0  01:57      1.91    2.97    1.00
  YS02001607YS02001610 CONDUIT    537.90     0  01:57      0.68    0.51    1.00
  YS02001610YS02001613 CONDUIT    542.90     0  01:57      0.69    0.63    1.00
  YS02001613YS02001616 CONDUIT    549.86     0  01:57      0.70    0.47    1.00
  YS02001616YS02001619 CONDUIT    528.33     0  01:57      0.68    0.92    1.00
  YS02001619YS02001622 CONDUIT    939.08     0  01:57      1.21    1.38    1.00
  YS02001622YS02001625 CONDUIT    942.28     0  01:57      1.20    0.50    1.00
  YS02001625YS02001629 CONDUIT    943.26     0  01:57      1.20    0.45    1.00
  YS02001629YS02163301 CONDUIT    936.34     0  02:17      1.19    1.15    1.00
  YS02001633YS02163601 CONDUIT   1421.79     0  01:59      1.81    1.49    1.00
  YS02001641YS02001644 CONDUIT   1418.99     0  01:59      1.81    4.59    1.00
  YS02001644YS02001647 CONDUIT   1862.92     0  01:59      2.40    1.09    1.00
  YS02001647YS02001649 CONDUIT   1879.53     0  01:59      2.39    0.99    1.00
  YS02001649YS02001757 CONDUIT   2160.54     0  01:59      2.76    1.31    1.00
  YS02001652YS02001649 CONDUIT    642.40     0  02:03      0.82    0.32    1.00
  YS02001655YS02001652 CONDUIT    642.22     0  02:03      1.36    0.31    1.00
  YS02001658YS02001655 CONDUIT    641.82     0  02:03      1.96    0.27    1.00
  YS02001661YS02001658 CONDUIT    759.39     0  02:02      2.40    0.30    0.95
  YS02001664YS02001661 CONDUIT    709.25     0  02:03      2.37    0.22    0.65
  YS02001745YS02001748 CONDUIT    611.05     0  02:02      2.29    0.24    0.78
  YS02001748YS02001751 CONDUIT    463.84     0  02:06      1.79    0.23    1.00
  YS02001751YS02001754 CONDUIT    427.27     0  02:04      1.46    0.21    1.00
  YS02001754YS02001757 CONDUIT    427.20     0  02:04      0.54    0.17    1.00
  YS02001757CaochengTiaoxuchi CONDUIT   3320.50     0  02:03      6.10    1.44    0.83
  YS02001759YS02001757 CONDUIT   1234.33     0  02:01      1.57    0.88    1.00
  YS02001762YS02001759 CONDUIT    736.39     0  02:01      0.94    0.85    1.00
  YS02001765YS02001762 CONDUIT    730.77     0  02:01      0.93    0.69    1.00
  YS02001767YS02001765 CONDUIT    724.40     0  02:01      0.92    0.91    1.00
  YS02001770YS02001767 CONDUIT    719.75     0  02:02      0.92    2.85    1.00
  YS02001774YS02001770 CONDUIT    394.35     0  02:00      0.50    0.25    1.00
  YS02001779YS02001774 CONDUIT    401.52     0  02:00      0.52    0.20    1.00
  YS02001783YS02001784 CONDUIT   1154.85     0  02:01      2.30    1.59    1.00
  YS02001784YS02001785 CONDUIT   1156.27     0  02:01      2.30    2.69    1.00
  YS02001786YS02001788 CONDUIT   1156.75     0  02:00      2.48    2.23    0.89
  YS02001788YS02001790 CONDUIT   1172.63     0  02:00      2.70    0.86    0.84
  YS02001790YS02001791 CONDUIT   1283.87     0  02:04      3.42    1.40    0.70
  YS02001791YS02001793 CONDUIT   1247.69     0  02:03      6.74    0.54    0.43
  YS02001793JiankangQianchi CONDUIT   1386.72     0  02:06     14.89    0.11    0.50
  YS02001882YS02001884 CONDUIT     46.82     0  01:58      0.10    0.05    1.00
  YS02001884YS02001887 CONDUIT     79.57     0  01:58      0.11    0.11    1.00
  YS02001887YS02001890 CONDUIT    553.94     0  02:02      0.71    0.95    1.00
  YS02001890YS02001895 CONDUIT    513.00     0  02:03      0.65    0.24    1.00
  YS02001895YS02001898 CONDUIT    512.87     0  02:03      0.65    0.89    1.00
  YS02001898YS02001901 CONDUIT    513.06     0  02:03      0.65    0.33    1.00
  YS02001901YS02001904 CONDUIT    512.90     0  02:03      0.65    0.80    1.00
  YS02001904YS02001907 CONDUIT    518.71     0  01:59      0.66    0.18    1.00
  YS02001907YS02006553 CONDUIT    792.00     0  02:15      0.88    0.93    1.00
  YS02001910YS02001907 CONDUIT   1042.44     0  02:01      1.33    0.59    1.00
  YS02001915YS02001910 CONDUIT   1042.18     0  02:01      1.33    0.52    1.00
  YS02001918YS02001915 CONDUIT    487.16     0  02:00      0.62    0.27    1.00
  YS02001920YS02001918 CONDUIT    482.39     0  02:00      0.65    0.47    1.00
  YS02001923YS02001920 CONDUIT    484.42     0  02:00      0.70    0.22    1.00
  YS02001926YS02001923 CONDUIT    502.13     0  02:00      0.98    0.72    1.00
  YS02001929YS02001926 CONDUIT    393.73     0  02:01      1.17    0.19    1.00
  YS02006553YS02006556 CONDUIT    792.01     0  02:15      1.01    0.68    1.00
  YS02006556YS02006558 CONDUIT    793.20     0  02:15      1.01    0.63    1.00
  YS02006558YS02006561 CONDUIT   1169.15     0  02:00      4.14    2.58    1.00
  YS02006561YS02001783 CONDUIT   1154.88     0  02:01      2.30    0.60    1.00
  YS02163301YS02001633 CONDUIT    936.42     0  02:17      1.19    0.88    1.00
  YS02163601YS02164001 CONDUIT   1420.58     0  01:59      1.81    1.26    1.00
  YS02164001YS02001641 CONDUIT   1418.85     0  01:59      1.81    1.94    1.00
  CC-R1                PUMP       683.00     0  00:00              1.00
  CC-R2                PUMP       683.00     0  00:00              1.00
  CC-S1                PUMP       200.00     0  00:00              1.00
  CC-S2                PUMP       200.00     0  00:00              1.00
  JK-R1                PUMP      1000.00     0  00:00              1.00
  JK-R2                PUMP      1000.00     0  00:00              1.00
  JK-S                 PUMP       300.00     0  00:00              1.00
  
  
  ***************************
  Flow Classification Summary
  ***************************
  
  -------------------------------------------------------------------------------------
                      Adjusted    ---------- Fraction of Time in Flow Class ---------- 
                       /Actual         Up    Down  Sub   Sup   Up    Down  Norm  Inlet 
  Conduit               Length    Dry  Dry   Dry   Crit  Crit  Crit  Crit  Ltd   Ctrl  
  -------------------------------------------------------------------------------------
  1                       1.00   0.00  0.00  0.00  0.00  1.00  0.00  0.00  0.61  0.00
  WS02003060WS02003069    1.00   0.00  0.00  0.00  0.97  0.03  0.00  0.00  0.82  0.00
  WS02003066WSF200        1.00   0.05  0.00  0.00  0.00  0.95  0.00  0.00  0.92  0.00
  WS02003067WS02003066    1.00   0.05  0.00  0.00  0.95  0.00  0.00  0.00  0.00  0.00
  WS02003069WS02003072    1.00   0.00  0.00  0.00  0.99  0.01  0.00  0.00  0.84  0.00
  WS02003072WS02003073    1.00   0.00  0.00  0.00  0.00  0.00  0.00  1.00  0.00  0.00
  WS02004401WS02004402    1.00   0.02  0.00  0.00  0.98  0.00  0.00  0.00  0.00  0.00
  WS02004402WS02004403    1.00   0.02  0.00  0.00  0.98  0.00  0.00  0.00  0.00  0.00
  WS02004403WS02004404    1.00   0.00  0.03  0.00  0.97  0.00  0.00  0.00  0.00  0.00
  WS02004404WS02004405    1.00   0.00  0.00  0.00  1.00  0.00  0.00  0.00  0.01  0.00
  WS02004405WS02004406    1.00   0.00  0.00  0.00  1.00  0.00  0.00  0.00  0.00  0.00
  WS02004406WS02004407    1.00   0.00  0.03  0.00  0.97  0.00  0.00  0.00  0.00  0.00
  WS02004407WS02004409    1.00   0.03  0.00  0.00  0.95  0.01  0.00  0.00  0.96  0.00
  WS02004409WS02004410    1.00   0.03  0.00  0.00  0.96  0.00  0.00  0.00  0.00  0.00
  WS02004410WS02004411    1.00   0.04  0.00  0.00  0.96  0.00  0.00  0.00  0.00  0.00
  WS02004411WS02004412    1.00   0.04  0.00  0.00  0.96  0.00  0.00  0.00  0.00  0.00
  WS02004412WS02004413    1.00   0.04  0.00  0.00  0.96  0.00  0.00  0.00  0.00  0.00
  WS02004413WS02003067    1.00   0.04  0.01  0.00  0.00  0.00  0.95  0.00  0.00  0.00
  WS02006109WS02006110    1.00   0.00  0.01  0.00  0.98  0.00  0.01  0.00  0.00  0.00
  WS02006110WS02006113    1.00   0.01  0.01  0.00  0.98  0.00  0.00  0.00  0.00  0.00
  WS02006111WS02006112    1.00   0.02  0.00  0.00  0.98  0.00  0.00  0.00  0.98  0.00
  WS02006112WS02006115    1.00   0.02  0.00  0.00  0.97  0.00  0.00  0.00  0.00  0.00
  WS02006113WS02006111    1.00   0.02  0.00  0.00  0.00  0.98  0.00  0.00  0.10  0.00
  WS02006115WS02006116    1.00   0.02  0.00  0.00  0.97  0.00  0.00  0.01  0.00  0.00
  WS02006116WS02004401    1.00   0.02  0.00  0.00  0.98  0.00  0.00  0.00  0.00  0.00
  WS02006228WS02006109    1.00   0.00  0.00  0.00  1.00  0.00  0.00  0.00  0.00  0.00
  WS02006229WS02006228    1.00   0.00  0.00  0.00  0.99  0.00  0.00  0.01  0.00  0.00
  WS02006230WS02006229    1.00   0.00  0.00  0.00  0.99  0.00  0.00  0.01  0.01  0.00
  WS02006231WS02006230    1.00   0.00  0.00  0.00  0.17  0.00  0.83  0.00  0.00  0.00
  WS02006232WS02006231    1.00   0.00  0.00  0.00  0.99  0.00  0.01  0.00  0.00  0.00
  WS02006234WS02006232    1.00   0.00  0.00  0.00  1.00  0.00  0.00  0.00  0.24  0.00
  WS02006235WS02006234    1.00   0.00  0.00  0.00  0.54  0.00  0.46  0.00  0.00  0.00
  WS02006238WS02006235    1.00   0.00  0.00  0.00  1.00  0.00  0.00  0.00  0.01  0.00
  WS02006239WS02006238    1.00   0.00  0.00  0.00  1.00  0.00  0.00  0.00  0.40  0.00
  WS02006240WS02006239    1.00   0.00  0.00  0.00  0.46  0.00  0.00  0.54  0.04  0.00
  WS02006242WS02006240    1.00   0.00  0.00  0.00  0.99  0.00  0.01  0.00  0.00  0.00
  WS02006243WS02006242    1.00   0.00  0.00  0.00  0.99  0.00  0.00  0.01  0.73  0.00
  WS02006245WS02006243    1.00   0.00  0.00  0.00  0.44  0.00  0.00  0.55  0.01  0.00
  WS02006247WS02006245    1.00   0.00  0.00  0.00  0.99  0.00  0.00  0.01  0.00  0.00
  WS02006248WS02006247    1.00   0.00  0.00  0.00  0.99  0.00  0.00  0.01  0.21  0.00
  WS02006249WS02006248    1.00   0.00  0.00  0.00  0.27  0.00  0.73  0.00  0.00  0.00
  WS02006251WS02006249    1.00   0.00  0.00  0.00  1.00  0.00  0.00  0.00  0.74  0.00
  WS02006252WS02006251    1.00   0.00  0.68  0.00  0.04  0.00  0.28  0.00  0.03  0.00
  WS02006256WS02006235    1.00   0.00  0.00  0.00  0.99  0.01  0.00  0.00  0.01  0.00
  WSF200WS02003060        1.00   0.00  0.05  0.00  0.55  0.40  0.00  0.00  0.77  0.00
  YS02001580YS02001583    1.00   0.24  0.59  0.00  0.17  0.00  0.00  0.00  0.68  0.00
  YS02001583YS02001586    1.00   0.43  0.35  0.00  0.22  0.00  0.00  0.00  0.68  0.00
  YS02001586YS02001590    1.00   0.13  0.00  0.00  0.40  0.05  0.00  0.42  0.37  0.00
  YS02001590YS02001593    1.00   0.13  0.01  0.00  0.09  0.00  0.77  0.00  0.00  0.00
  YS02001593YS02001596    1.00   0.14  0.00  0.00  0.10  0.01  0.00  0.75  0.02  0.00
  YS02001596YS02001600    1.00   0.14  0.00  0.00  0.17  0.01  0.00  0.67  0.06  0.00
  YS02001600YS02001601    1.00   0.13  0.01  0.00  0.86  0.00  0.00  0.00  0.62  0.00
  YS02001601YS02001602    1.00   0.13  0.01  0.00  0.86  0.00  0.00  0.00  0.00  0.00
  YS02001602YS02001605    1.00   0.14  0.00  0.00  0.86  0.00  0.00  0.00  0.00  0.00
  YS02001605YS02001607    1.00   0.14  0.00  0.00  0.86  0.00  0.00  0.00  0.00  0.00
  YS02001607YS02001610    1.00   0.13  0.01  0.00  0.86  0.00  0.00  0.00  0.02  0.00
  YS02001610YS02001613    1.00   0.13  0.00  0.00  0.87  0.00  0.00  0.00  0.01  0.00
  YS02001613YS02001616    1.00   0.13  0.00  0.00  0.87  0.00  0.00  0.00  0.01  0.00
  YS02001616YS02001619    1.00   0.13  0.00  0.00  0.87  0.00  0.00  0.00  0.00  0.00
  YS02001619YS02001622    1.00   0.13  0.00  0.00  0.87  0.00  0.00  0.00  0.29  0.00
  YS02001622YS02001625    1.00   0.13  0.00  0.00  0.87  0.00  0.00  0.00  0.06  0.00
  YS02001625YS02001629    1.00   0.13  0.06  0.00  0.13  0.00  0.68  0.00  0.00  0.00
  YS02001629YS02163301    1.00   0.16  0.01  0.00  0.82  0.00  0.00  0.00  0.00  0.00
  YS02001633YS02163601    1.00   0.00  0.01  0.00  0.99  0.00  0.00  0.00  0.16  0.00
  YS02001641YS02001644    1.00   0.00  0.01  0.00  0.99  0.00  0.00  0.00  0.00  0.00
  YS02001644YS02001647    1.00   0.00  0.19  0.00  0.81  0.00  0.00  0.00  0.00  0.00
  YS02001647YS02001649    1.00   0.00  0.18  0.00  0.49  0.33  0.00  0.00  0.58  0.00
  YS02001649YS02001757    1.00   0.00  0.00  0.00  0.63  0.37  0.00  0.00  0.56  0.00
  YS02001652YS02001649    1.00   0.00  0.00  0.00  0.96  0.04  0.00  0.00  0.77  0.00
  YS02001655YS02001652    1.00   0.00  0.00  0.00  0.15  0.02  0.00  0.83  0.09  0.00
  YS02001658YS02001655    1.00   0.00  0.15  0.00  0.59  0.27  0.00  0.00  0.75  0.00
  YS02001661YS02001658    1.00   0.15  0.00  0.00  0.43  0.42  0.00  0.00  0.73  0.00
  YS02001664YS02001661    1.00   0.13  0.00  0.00  0.75  0.12  0.00  0.00  0.86  0.00
  YS02001745YS02001748    1.00   0.00  0.00  0.00  0.02  0.01  0.00  0.97  0.02  0.00
  YS02001748YS02001751    1.00   0.00  0.00  0.00  0.75  0.25  0.00  0.00  0.84  0.00
  YS02001751YS02001754    1.00   0.00  0.00  0.00  0.09  0.01  0.00  0.90  0.04  0.00
  YS02001754YS02001757    1.00   0.00  0.00  0.00  1.00  0.00  0.00  0.00  0.89  0.00
  YS02001757CaochengTiaoxuchi    1.00   0.00  0.00  0.00  0.65  0.35  0.00  0.00  0.77  0.00
  YS02001759YS02001757    1.00   0.00  0.00  0.00  1.00  0.00  0.00  0.00  0.63  0.00
  YS02001762YS02001759    1.00   0.00  0.00  0.00  1.00  0.00  0.00  0.00  0.05  0.00
  YS02001765YS02001762    1.00   0.00  0.00  0.00  1.00  0.00  0.00  0.00  0.76  0.00
  YS02001767YS02001765    1.00   0.00  0.00  0.00  1.00  0.00  0.00  0.00  0.01  0.00
  YS02001770YS02001767    1.00   0.00  0.00  0.00  1.00  0.00  0.00  0.00  0.00  0.00
  YS02001774YS02001770    1.00   0.00  0.14  0.00  0.70  0.00  0.17  0.00  0.04  0.00
  YS02001779YS02001774    1.00   0.00  0.00  0.00  1.00  0.00  0.00  0.00  0.81  0.00
  YS02001783YS02001784    1.00   0.00  0.19  0.00  0.81  0.00  0.00  0.00  0.56  0.00
  YS02001784YS02001785    1.00   0.00  0.00  0.00  1.00  0.00  0.00  0.00  0.18  0.00
  YS02001786YS02001788    1.00   0.00  0.00  0.00  0.80  0.20  0.00  0.00  0.00  0.00
  YS02001788YS02001790    1.00   0.00  0.00  0.00  0.22  0.78  0.00  0.00  0.83  0.00
  YS02001790YS02001791    1.00   0.00  0.00  0.00  0.01  0.99  0.00  0.00  0.15  0.00
  YS02001791YS02001793    1.00   0.00  0.00  0.00  0.00  1.00  0.00  0.00  0.01  0.00
  YS02001793JiankangQianchi    1.00   0.00  0.00  0.00  0.45  0.55  0.00  0.00  0.79  0.00
  YS02001882YS02001884    1.00   0.16  0.01  0.00  0.83  0.00  0.00  0.00  0.00  0.00
  YS02001884YS02001887    1.00   0.06  0.05  0.00  0.89  0.00  0.00  0.00  0.00  0.00
  YS02001887YS02001890    1.00   0.00  0.00  0.00  0.97  0.00  0.03  0.00  0.00  0.00
  YS02001890YS02001895    1.00   0.00  0.17  0.00  0.82  0.00  0.00  0.00  0.00  0.00
  YS02001895YS02001898    1.00   0.18  0.00  0.00  0.80  0.00  0.02  0.00  0.00  0.00
  YS02001898YS02001901    1.00   0.18  0.00  0.00  0.82  0.00  0.00  0.00  0.01  0.00
  YS02001901YS02001904    1.00   0.18  0.00  0.00  0.82  0.00  0.00  0.00  0.00  0.00
  YS02001904YS02001907    1.00   0.00  0.17  0.00  0.82  0.00  0.00  0.00  0.00  0.00
  YS02001907YS02006553    1.00   0.00  0.02  0.00  0.98  0.00  0.00  0.00  0.00  0.00
  YS02001910YS02001907    1.00   0.00  0.00  0.00  0.97  0.00  0.00  0.03  0.12  0.00
  YS02001915YS02001910    1.00   0.00  0.00  0.00  0.96  0.04  0.00  0.00  0.17  0.00
  YS02001918YS02001915    1.00   0.00  0.01  0.00  0.98  0.02  0.00  0.00  0.77  0.00
  YS02001920YS02001918    1.00   0.00  0.01  0.00  0.99  0.00  0.00  0.00  0.00  0.00
  YS02001923YS02001920    1.00   0.00  0.00  0.00  1.00  0.00  0.00  0.00  0.94  0.00
  YS02001926YS02001923    1.00   0.00  0.07  0.00  0.04  0.00  0.88  0.00  0.00  0.00
  YS02001929YS02001926    1.00   0.00  0.13  0.00  0.87  0.00  0.00  0.00  0.83  0.00
  YS02006553YS02006556    1.00   0.01  0.00  0.00  0.99  0.00  0.00  0.00  0.03  0.00
  YS02006556YS02006558    1.00   0.00  0.00  0.00  1.00  0.00  0.00  0.00  0.00  0.00
  YS02006558YS02006561    1.00   0.19  0.00  0.00  0.04  0.77  0.00  0.00  0.19  0.00
  YS02006561YS02001783    1.00   0.19  0.00  0.00  0.07  0.74  0.00  0.00  0.70  0.00
  YS02163301YS02001633    1.00   0.00  0.16  0.00  0.84  0.00  0.00  0.00  0.00  0.00
  YS02163601YS02164001    1.00   0.00  0.08  0.00  0.92  0.00  0.00  0.00  0.00  0.00
  YS02164001YS02001641    1.00   0.01  0.08  0.00  0.92  0.00  0.00  0.00  0.06  0.00
  
  
  *************************
  Conduit Surcharge Summary
  *************************
  
  ----------------------------------------------------------------------------
                                                           Hours        Hours 
                         --------- Hours Full --------   Above Full   Capacity
  Conduit                Both Ends  Upstream  Dnstream   Normal Flow   Limited
  ----------------------------------------------------------------------------
  WS02003072WS02003073        0.01      0.01      0.01      0.44         0.01
  WS02004404WS02004405        0.01      0.01      0.01      2.01         0.01
  WS02006109WS02006110        0.01      0.01      1.25      0.01         0.01
  WS02006110WS02006113        0.01      0.01      1.23      0.01         0.01
  WS02006111WS02006112        0.01      0.01      1.29      0.01         0.01
  WS02006112WS02006115        0.01      0.01      0.15      0.01         0.01
  WS02006228WS02006109        1.17      1.25      1.17      1.53         1.17
  WS02006229WS02006228        1.15      1.18      1.15      1.40         1.15
  WS02006230WS02006229        1.31      1.35      1.31      2.47         1.31
  WS02006231WS02006230        0.01      0.01      0.14      2.12         0.01
  WS02006232WS02006231        0.06      0.06      1.26      0.16         0.01
  WS02006234WS02006232        0.88      0.88      1.26      0.07         0.22
  WS02006235WS02006234        0.47      0.50      1.04      1.92         0.12
  WS02006238WS02006235        1.15      1.15      1.28      0.01         0.06
  WS02006239WS02006238        1.21      1.26      1.22      1.38         0.99
  WS02006240WS02006239        1.13      1.20      1.14      1.39         0.95
  WS02006242WS02006240        1.16      1.16      1.32      1.53         0.03
  WS02006243WS02006242        1.21      1.21      1.28      0.01         0.17
  WS02006245WS02006243        1.19      1.21      1.20      1.50         0.99
  WS02006247WS02006245        1.19      1.23      1.19      1.67         1.10
  WS02006248WS02006247        1.19      1.19      1.22      0.01         0.26
  WS02006249WS02006248        1.18      1.18      1.20      1.65         0.01
  WS02006251WS02006249        1.20      1.21      1.20      1.62         0.93
  WS02006252WS02006251        1.67      1.67      1.67      1.67         0.01
  WS02006256WS02006235        1.66      2.01      3.77      0.41         0.07
  YS02001580YS02001583        0.41      0.41      0.45      0.01         0.01
  YS02001583YS02001586        0.42      0.42      0.52      0.01         0.01
  YS02001586YS02001590        0.53      0.53      0.59      0.01         0.01
  YS02001590YS02001593        0.59      0.59      0.61      0.64         0.01
  YS02001593YS02001596        0.60      0.60      0.69      0.01         0.01
  YS02001596YS02001600        0.73      0.73      0.83      0.01         0.01
  YS02001600YS02001601        0.89      0.89      1.21      0.01         0.01
  YS02001601YS02001602        1.07      1.07      1.25      0.85         0.01
  YS02001602YS02001605        1.01      1.01      1.07      2.03         0.01
  YS02001605YS02001607        0.96      1.01      0.96      1.15         0.96
  YS02001607YS02001610        0.53      0.53      0.55      0.01         0.01
  YS02001610YS02001613        0.52      0.52      0.55      0.01         0.01
  YS02001613YS02001616        0.48      0.48      0.52      0.01         0.01
  YS02001616YS02001619        0.46      0.46      0.48      0.01         0.01
  YS02001619YS02001622        0.45      0.46      0.45      0.63         0.43
  YS02001622YS02001625        0.45      0.45      0.64      0.01         0.01
  YS02001625YS02001629        0.36      0.36      0.64      0.01         0.01
  YS02001629YS02163301        0.62      0.62      0.63      0.31         0.30
  YS02001633YS02163601        0.65      0.65      0.67      0.44         0.43
  YS02001641YS02001644        0.48      0.54      0.48      1.29         0.47
  YS02001644YS02001647        0.26      0.26      0.48      0.04         0.01
  YS02001647YS02001649        0.26      0.26      0.29      0.01         0.01
  YS02001649YS02001757        0.27      0.29      0.27      0.36         0.26
  YS02001652YS02001649        0.20      0.20      0.29      0.01         0.01
  YS02001655YS02001652        0.12      0.12      0.19      0.01         0.01
  YS02001658YS02001655        0.04      0.04      0.12      0.01         0.01
  YS02001661YS02001658        0.01      0.01      0.04      0.01         0.01
  YS02001745YS02001748        0.01      0.01      0.01      0.01         0.01
  YS02001748YS02001751        0.02      0.02      0.06      0.01         0.01
  YS02001751YS02001754        0.06      0.06      0.12      0.01         0.01
  YS02001754YS02001757        0.14      0.14      0.27      0.01         0.01
  YS02001757CaochengTiaoxuchi        0.01      0.27      0.01      0.37         0.01
  YS02001759YS02001757        0.24      0.24      0.27      0.01         0.01
  YS02001762YS02001759        0.22      0.22      0.24      0.01         0.02
  YS02001765YS02001762        0.20      0.20      0.22      0.01         0.01
  YS02001767YS02001765        0.19      0.19      0.20      0.01         0.02
  YS02001770YS02001767        0.19      0.19      0.19      0.44         0.18
  YS02001774YS02001770        0.18      0.18      0.22      0.01         0.01
  YS02001779YS02001774        0.14      0.14      0.22      0.01         0.01
  YS02001783YS02001784        0.38      0.40      0.38      0.53         0.38
  YS02001784YS02001785        0.29      0.38      0.29      0.72         0.29
  YS02001786YS02001788        0.01      0.29      0.01      0.62         0.01
  YS02001790YS02001791        0.01      0.01      0.01      0.37         0.01
  YS02001882YS02001884        0.36      0.36      0.37      0.01         0.01
  YS02001884YS02001887        0.39      0.39      0.40      0.01         0.01
  YS02001887YS02001890        0.41      0.41      0.42      0.01         0.01
  YS02001890YS02001895        0.35      0.35      0.43      0.01         0.01
  YS02001895YS02001898        0.34      0.34      0.35      0.01         0.01
  YS02001898YS02001901        0.35      0.35      0.38      0.01         0.01
  YS02001901YS02001904        0.38      0.38      0.38      0.01         0.01
  YS02001904YS02001907        0.38      0.38      0.60      0.01         0.01
  YS02001907YS02006553        0.74      0.74      0.80      0.01         0.01
  YS02001910YS02001907        0.43      0.43      0.59      0.01         0.01
  YS02001915YS02001910        0.35      0.35      0.43      0.01         0.01
  YS02001918YS02001915        0.28      0.28      0.35      0.01         0.01
  YS02001920YS02001918        0.28      0.28      0.29      0.01         0.01
  YS02001923YS02001920        0.23      0.23      0.29      0.01         0.01
  YS02001926YS02001923        0.01      0.01      0.01      0.01         0.01
  YS02001929YS02001926        0.01      0.01      0.01      0.01         0.01
  YS02006553YS02006556        0.51      0.51      0.60      0.01         0.01
  YS02006556YS02006558        0.56      0.56      0.62      0.01         0.01
  YS02006558YS02006561        0.31      0.50      0.31      0.69         0.31
  YS02006561YS02001783        0.24      0.24      0.40      0.01         0.01
  YS02163301YS02001633        0.63      0.63      0.67      0.01         0.02
  YS02163601YS02164001        0.55      0.55      0.67      0.26         0.01
  YS02164001YS02001641        0.54      0.55      0.54      0.68         0.49
  
  
  ***************
  Pumping Summary
  ***************
  
  ---------------------------------------------------------------------------------------------------------
                                                  Min       Avg       Max     Total     Power    % Time Off
                        Percent   Number of      Flow      Flow      Flow    Volume     Usage    Pump Curve
  Pump                 Utilized   Start-Ups       LPS       LPS       LPS  10^6 ltr     Kw-hr    Low   High
  ---------------------------------------------------------------------------------------------------------
  CC-R1                   21.13           5      0.00    683.00    683.00     4.112     66.74    0.0  100.0
  CC-R2                   21.13           5      0.00    683.00    683.00     4.112     66.74    0.0  100.0
  CC-S1                   21.13           5      0.00    200.00    200.00     1.204      9.42    0.0   31.2
  CC-S2                   21.13           5      0.00    200.00    200.00     1.204      9.42    0.0   31.2
  JK-R1                    5.56         228      0.00   1000.00   1000.00     1.585      4.29    0.0    0.0
  JK-R2                    5.56         228      0.00   1000.00   1000.00     1.585      4.29    0.0    0.0
  JK-S                     5.56         228      0.00    300.00    300.00     0.475     10.73    0.0    0.0
  

  Analysis begun on:  Tue Apr 22 10:16:09 2025
  Analysis ended on:  Tue Apr 22 10:16:10 2025
  Total elapsed time: 00:00:01