
  EPA STORM WATER MANAGEMENT MODEL - VERSION 5.2 (Build 5.2.4)
  PYSWMM TOOLKIT API - VERSION v1.0 (2023-11-27)
  ------------------------------------------------------------

  WARNING 04: minimum elevation drop used for Conduit WS02004404WS02004405
  WARNING 03: negative offset ignored for Link YS02001904YS02001907
  
  ****************
  Analysis Options
  ****************
  Flow Units ............... LPS
  Process Models:
    Rainfall/Runoff ........ YES
    RDII ................... NO
    Snowmelt ............... NO
    Groundwater ............ NO
    Flow Routing ........... YES
    Ponding Allowed ........ NO
    Water Quality .......... NO
  Infiltration Method ...... HORTON
  Flow Routing Method ...... DYNWAVE
  Surcharge Method ......... EXTRAN
  Starting Date ............ 08/28/2015 08:00:00
  Ending Date .............. 08/28/2015 16:00:00
  Antecedent Dry Days ...... 8.0
  Report Time Step ......... 00:01:00
  Wet Time Step ............ 00:01:00
  Dry Time Step ............ 00:01:00
  Routing Time Step ........ 30.00 sec
  Variable Time Step ....... YES
  Maximum Trials ........... 8
  Number of Threads ........ 4
  Head Tolerance ........... 0.001500 m
  
  
  **************************        Volume         Depth
  Runoff Quantity Continuity     hectare-m            mm
  **************************     ---------       -------
  Total Precipitation ......         3.151        94.999
  Evaporation Loss .........         0.000         0.000
  Infiltration Loss ........         0.104         3.134
  Surface Runoff ...........         3.015        90.885
  Final Storage ............         0.033         0.998
  Continuity Error (%) .....        -0.019
  
  
  **************************        Volume        Volume
  Flow Routing Continuity        hectare-m      10^6 ltr
  **************************     ---------     ---------
  Dry Weather Inflow .......         0.025         0.248
  Wet Weather Inflow .......         3.014        30.143
  Groundwater Inflow .......         0.000         0.000
  RDII Inflow ..............         0.000         0.000
  External Inflow ..........         0.083         0.825
  External Outflow .........         2.218        22.182
  Flooding Loss ............         1.092        10.924
  Evaporation Loss .........         0.000         0.000
  Exfiltration Loss ........         0.000         0.000
  Initial Stored Volume ....         0.243         2.431
  Final Stored Volume ......         0.070         0.702
  Continuity Error (%) .....        -0.477
  
  
  *************************
  Highest Continuity Errors
  *************************
  Node WS02006256 (-12.11%)
  Node YS02001884 (5.21%)
  Node YS02001583 (-4.29%)
  
  
  ***************************
  Time-Step Critical Elements
  ***************************
  Link YS02001793JiankangQianchi (25.19%)
  Link WS02006238WS02006235 (17.24%)
  Link WS02004404WS02004405 (16.82%)
  Link WS02003066WSF200 (11.71%)
  Link WS02006235WS02006234 (7.01%)
  
  
  ********************************
  Highest Flow Instability Indexes
  ********************************
  Link WS02006229WS02006228 (42)
  Link WS02006113WS02006111 (38)
  Link WS02006252WS02006251 (36)
  Link WS02006228WS02006109 (29)
  Link YS02001602YS02001605 (28)
  
  
  *********************************
  Most Frequent Nonconverging Nodes
  *********************************
  Node CC-1 (43.08%)
  Node CC-2 (43.08%)
  Node JK-1 (43.08%)
  Node JK-2 (43.08%)
  Node WSC (43.08%)
  
  
  *************************
  Routing Time Step Summary
  *************************
  Minimum Time Step           :     0.01 sec
  Average Time Step           :     2.86 sec
  Maximum Time Step           :     6.43 sec
  % of Time in Steady State   :     0.00
  Average Iterations per Step :     4.87
  % of Steps Not Converging   :    43.08
  Time Step Frequencies       :
     30.000 - 13.228 sec      :     0.00 %
     13.228 -  5.833 sec      :    15.27 %
      5.833 -  2.572 sec      :    27.93 %
      2.572 -  1.134 sec      :    41.47 %
      1.134 -  0.500 sec      :    15.33 %
  
  
  ***************************
  Subcatchment Runoff Summary
  ***************************
  
  ------------------------------------------------------------------------------------------------------------------------------
                            Total      Total      Total      Total     Imperv       Perv      Total       Total     Peak  Runoff
                           Precip      Runon       Evap      Infil     Runoff     Runoff     Runoff      Runoff   Runoff   Coeff
  Subcatchment                 mm         mm         mm         mm         mm         mm         mm    10^6 ltr      LPS
  ------------------------------------------------------------------------------------------------------------------------------
  sub60                     95.00       0.00       0.00       1.89      82.40       9.52      91.92        1.21   714.12   0.968
  sub61                     95.00       0.00       0.00       2.73      77.72      13.42      91.14        1.67   991.92   0.959
  sub62                     95.00       0.00       0.00       1.26      86.11       6.35      92.46        2.53  1399.70   0.973
  sub63                     95.00       0.00       0.00       5.03      66.48      22.52      89.00        2.02  1122.58   0.937
  sub64                     95.00       0.00       0.00       2.55      79.54      11.71      91.25        2.19  1157.99   0.961
  sub65                     95.00       0.00       0.00       2.20      81.40      10.15      91.54        2.52  1297.79   0.964
  sub66                     95.00       0.00       0.00       6.20      66.37      21.35      87.72        4.09  1741.03   0.923
  sub67                     95.00       0.00       0.00       1.21      86.16       6.40      92.55        1.72  1060.18   0.974
  sub68                     95.00       0.00       0.00       2.27      80.51      11.04      91.55        2.52  1434.96   0.964
  sub69                     95.00       0.00       0.00       2.04      80.64      12.22      92.85        3.44  1726.27   0.977
  sub70                     95.00       0.00       0.00       6.74      62.53      25.56      88.09        2.54   983.33   0.927
  sub71                     95.00       0.00       0.00       1.29      86.07       6.31      92.38        2.42  1252.56   0.972
  sub72                     95.00       0.00       0.00       1.15      86.94       5.50      92.45        1.27   612.63   0.973
  
  
  ******************
  Node Depth Summary
  ******************
  
  ---------------------------------------------------------------------------------
                                 Average  Maximum  Maximum  Time of Max    Reported
                                   Depth    Depth      HGL   Occurrence   Max Depth
  Node                 Type       Meters   Meters   Meters  days hr:min      Meters
  ---------------------------------------------------------------------------------
  WS02003060           JUNCTION     0.23     0.36     5.30     0  02:15        0.36
  WS02003066           JUNCTION     0.18     0.29     5.84     0  02:15        0.29
  WS02003067           JUNCTION     0.48     0.68     6.00     0  02:14        0.68
  WS02003069           JUNCTION     0.25     0.41     4.99     0  02:16        0.41
  WS02003072           JUNCTION     0.31     0.48     4.85     0  02:16        0.48
  WS02003073           JUNCTION     0.17     0.28     4.35     0  02:17        0.28
  WS02004401           JUNCTION     0.58     0.81     6.81     0  02:12        0.81
  WS02004402           JUNCTION     0.61     0.84     6.80     0  02:12        0.84
  WS02004403           JUNCTION     0.63     0.86     6.79     0  02:12        0.86
  WS02004404           JUNCTION     0.70     0.93     6.78     0  02:12        0.93
  WS02004405           JUNCTION     0.70     0.92     6.77     0  02:12        0.92
  WS02004406           JUNCTION     0.71     0.93     6.76     0  02:12        0.93
  WS02004407           JUNCTION     0.17     0.28     6.59     0  02:13        0.28
  WS02004409           JUNCTION     0.38     0.63     6.40     0  02:13        0.63
  WS02004410           JUNCTION     0.40     0.65     6.37     0  02:13        0.65
  WS02004411           JUNCTION     0.42     0.66     6.34     0  02:14        0.66
  WS02004412           JUNCTION     0.44     0.67     6.31     0  02:14        0.67
  WS02004413           JUNCTION     0.59     0.83     6.30     0  02:14        0.83
  WS02006109           JUNCTION     0.66     0.92     7.54     0  02:06        0.91
  WS02006110           JUNCTION     0.66     0.89     7.47     0  02:10        0.89
  WS02006111           JUNCTION     0.18     0.27     6.98     0  02:08        0.27
  WS02006112           JUNCTION     0.74     1.00     6.88     0  02:11        1.00
  WS02006113           JUNCTION     0.27     0.43     7.32     0  02:11        0.43
  WS02006115           JUNCTION     0.47     0.71     6.85     0  02:11        0.71
  WS02006116           JUNCTION     0.55     0.79     6.83     0  02:11        0.79
  WS02006228           JUNCTION     0.65     0.96     7.61     0  02:06        0.95
  WS02006229           JUNCTION     0.63     0.95     7.64     0  01:55        0.94
  WS02006230           JUNCTION     0.64     1.02     7.76     0  02:06        1.01
  WS02006231           JUNCTION     0.43     1.31     8.43     0  02:02        0.78
  WS02006232           JUNCTION     0.56     1.57     8.61     0  02:38        1.54
  WS02006234           JUNCTION     0.50     1.96     9.12     0  02:02        1.96
  WS02006235           JUNCTION     0.54     2.00     9.16     0  02:18        2.00
  WS02006238           JUNCTION     0.57     2.15     9.29     0  02:18        2.15
  WS02006239           JUNCTION     0.55     2.03     9.24     0  02:10        2.03
  WS02006240           JUNCTION     0.53     2.10     9.39     0  01:54        2.00
  WS02006242           JUNCTION     0.60     1.55     8.82     0  01:41        1.55
  WS02006243           JUNCTION     0.54     1.48     8.90     0  01:59        1.48
  WS02006245           JUNCTION     0.55     1.49     8.97     0  02:15        1.49
  WS02006247           JUNCTION     0.57     1.40     8.90     0  02:15        1.40
  WS02006248           JUNCTION     0.54     1.10     8.69     0  01:39        1.10
  WS02006249           JUNCTION     0.57     1.09     8.69     0  01:40        1.09
  WS02006251           JUNCTION     0.57     1.23     8.90     0  02:08        1.18
  WS02006252           JUNCTION     0.36     1.50     9.74     0  00:00        0.76
  WS02006256           JUNCTION     0.91     2.35     9.28     0  00:00        2.35
  WSF200               JUNCTION     0.16     0.28     5.51     0  02:15        0.28
  YS02001580           JUNCTION     0.22     1.05     9.59     0  01:39        0.77
  YS02001583           JUNCTION     0.25     1.01     9.50     0  01:39        0.82
  YS02001586           JUNCTION     0.39     1.13     9.30     0  01:39        1.13
  YS02001590           JUNCTION     0.52     1.38     9.24     0  01:39        1.38
  YS02001593           JUNCTION     0.45     1.30     9.16     0  01:39        1.28
  YS02001596           JUNCTION     0.61     1.67     9.09     0  01:39        1.66
  YS02001600           JUNCTION     0.72     1.87     9.00     0  01:39        1.87
  YS02001601           JUNCTION     0.90     2.06     8.90     0  01:37        2.06
  YS02001602           JUNCTION     0.79     1.87     8.77     0  01:39        1.87
  YS02001605           JUNCTION     0.73     1.78     8.68     0  01:39        1.78
  YS02001607           JUNCTION     0.67     1.68     8.53     0  02:25        1.68
  YS02001610           JUNCTION     0.71     1.68     8.48     0  01:39        1.68
  YS02001613           JUNCTION     0.67     1.70     8.54     0  02:25        1.70
  YS02001616           JUNCTION     0.60     1.61     8.52     0  01:47        1.61
  YS02001619           JUNCTION     0.58     1.61     8.54     0  01:47        1.61
  YS02001622           JUNCTION     0.57     1.60     8.51     0  02:25        1.60
  YS02001625           JUNCTION     0.80     1.78     8.38     0  01:42        1.78
  YS02001629           JUNCTION     0.72     1.85     8.40     0  01:43        1.85
  YS02001633           JUNCTION     0.79     2.03     8.48     0  01:45        2.00
  YS02001641           JUNCTION     0.73     1.96     8.40     0  01:45        1.95
  YS02001644           JUNCTION     0.72     1.92     8.35     0  01:44        1.92
  YS02001647           JUNCTION     0.49     1.79     8.40     0  01:45        1.76
  YS02001649           JUNCTION     0.55     2.01     8.40     0  01:46        2.00
  YS02001652           JUNCTION     0.43     1.98     8.58     0  01:45        1.85
  YS02001655           JUNCTION     0.33     1.88     8.73     0  01:45        1.67
  YS02001658           JUNCTION     0.23     1.88     9.02     0  01:45        1.45
  YS02001661           JUNCTION     0.22     1.62     9.03     0  01:46        1.26
  YS02001664           JUNCTION     0.11     0.75     8.68     0  01:49        0.75
  YS02001745           JUNCTION     0.12     0.91     8.43     0  01:49        0.91
  YS02001748           JUNCTION     0.21     2.03     9.11     0  01:45        1.32
  YS02001751           JUNCTION     0.26     1.88     8.76     0  01:45        1.49
  YS02001754           JUNCTION     0.37     1.89     8.49     0  01:45        1.73
  YS02001757           JUNCTION     0.56     2.05     8.31     0  01:45        2.05
  YS02001759           JUNCTION     0.50     2.06     8.42     0  01:49        2.06
  YS02001762           JUNCTION     0.49     2.02     8.42     0  01:49        2.02
  YS02001765           JUNCTION     0.47     2.00     8.45     0  01:45        1.98
  YS02001767           JUNCTION     0.46     1.96     8.45     0  01:45        1.95
  YS02001770           JUNCTION     0.47     1.95     8.44     0  01:45        1.95
  YS02001774           JUNCTION     0.53     2.00     8.43     0  01:45        2.00
  YS02001779           JUNCTION     0.35     1.68     8.37     0  01:43        1.68
  YS02001783           JUNCTION     0.41     1.49     7.63     0  01:42        1.24
  YS02001784           JUNCTION     0.41     1.26     7.33     0  01:42        1.12
  YS02001786           JUNCTION     0.34     0.95     6.98     0  01:42        0.88
  YS02001788           JUNCTION     0.24     0.63     6.60     0  01:48        0.62
  YS02001790           JUNCTION     0.29     0.73     6.37     0  01:45        0.71
  YS02001791           JUNCTION     0.18     0.44     5.91     0  01:48        0.44
  YS02001793           JUNCTION     0.09     0.25     5.08     0  01:59        0.24
  YS02001882           JUNCTION     0.51     1.79     8.50     0  01:43        1.79
  YS02001884           JUNCTION     0.60     1.86     8.47     0  01:43        1.86
  YS02001887           JUNCTION     0.67     1.88     8.42     0  01:43        1.88
  YS02001890           JUNCTION     0.70     1.81     8.32     0  01:42        1.81
  YS02001895           JUNCTION     0.48     1.67     8.42     0  01:43        1.67
  YS02001898           JUNCTION     0.49     1.77     8.50     0  01:43        1.77
  YS02001901           JUNCTION     0.59     1.87     8.48     0  01:43        1.87
  YS02001904           JUNCTION     0.57     1.78     8.41     0  01:43        1.78
  YS02001907           JUNCTION     0.87     1.96     8.25     0  01:43        1.96
  YS02001910           JUNCTION     0.69     1.99     8.49     0  01:50        1.98
  YS02001915           JUNCTION     0.53     1.96     8.68     0  01:50        1.95
  YS02001918           JUNCTION     0.34     1.81     8.88     0  01:43        1.66
  YS02001920           JUNCTION     0.42     2.11     9.12     0  01:43        1.75
  YS02001923           JUNCTION     0.27     2.03     9.29     0  01:43        1.51
  YS02001926           JUNCTION     0.28     1.90     9.35     0  01:43        1.35
  YS02001929           JUNCTION     0.18     1.78     9.47     0  01:43        1.13
  YS02006553           JUNCTION     0.87     2.07     8.36     0  01:43        2.07
  YS02006556           JUNCTION     0.84     2.12     8.43     0  01:43        2.12
  YS02006558           JUNCTION     0.89     2.14     8.40     0  01:43        2.14
  YS02006561           JUNCTION     0.27     1.31     7.97     0  01:42        0.90
  YS02163301           JUNCTION     0.74     1.92     8.44     0  01:45        1.92
  YS02163601           JUNCTION     0.80     2.05     8.45     0  01:45        2.02
  YS02164001           JUNCTION     0.73     1.97     8.43     0  01:45        1.94
  CC-1                 OUTFALL      0.00     0.00     0.00     0  00:00        0.00
  CC-2                 OUTFALL      0.00     0.00     0.00     0  00:00        0.00
  JK-1                 OUTFALL      0.00     0.00     0.00     0  00:00        0.00
  JK-2                 OUTFALL      0.00     0.00     0.00     0  00:00        0.00
  WSC                  OUTFALL      0.17     0.28     0.95     0  02:17        0.28
  CC-storage           STORAGE      0.52     1.33     6.83     0  02:38        1.33
  JK-storage           STORAGE      0.11     2.99     3.79     0  00:00        0.68
  
  
  *******************
  Node Inflow Summary
  *******************
  
  -------------------------------------------------------------------------------------------------
                                  Maximum  Maximum                  Lateral       Total        Flow
                                  Lateral    Total  Time of Max      Inflow      Inflow     Balance
                                   Inflow   Inflow   Occurrence      Volume      Volume       Error
  Node                 Type           LPS      LPS  days hr:min    10^6 ltr    10^6 ltr     Percent
  -------------------------------------------------------------------------------------------------
  WS02003060           JUNCTION     16.53   503.30     0  02:15       0.471        4.71       0.038
  WS02003066           JUNCTION      0.00   486.69     0  02:15           0        4.24       0.031
  WS02003067           JUNCTION      0.00   486.64     0  02:14           0        4.25       0.093
  WS02003069           JUNCTION      0.32   503.56     0  02:15     0.00912        4.72       0.075
  WS02003072           JUNCTION      0.00   503.40     0  02:16           0        4.72       0.140
  WS02003073           JUNCTION      1.82   505.06     0  02:17      0.0519        4.76       0.103
  WS02004401           JUNCTION      0.00   488.32     0  02:11           0        4.35       0.230
  WS02004402           JUNCTION      0.00   488.08     0  02:12           0        4.34       0.234
  WS02004403           JUNCTION      0.00   487.71     0  02:12           0        4.33       0.230
  WS02004404           JUNCTION      0.16   487.72     0  02:12     0.00462        4.32       0.195
  WS02004405           JUNCTION      0.04   487.85     0  02:12     0.00109        4.31       0.279
  WS02004406           JUNCTION      0.00   487.91     0  02:12           0         4.3       0.481
  WS02004407           JUNCTION      0.00   487.50     0  02:12           0        4.28       0.019
  WS02004409           JUNCTION      0.00   487.31     0  02:13           0        4.28       0.051
  WS02004410           JUNCTION      0.00   487.11     0  02:13           0        4.28       0.095
  WS02004411           JUNCTION      0.00   487.16     0  02:13           0        4.27       0.122
  WS02004412           JUNCTION      0.00   486.95     0  02:14           0        4.27       0.164
  WS02004413           JUNCTION      0.00   486.90     0  02:14           0        4.26       0.308
  WS02006109           JUNCTION      1.23   491.76     0  02:06      0.0351        4.39       0.177
  WS02006110           JUNCTION      0.00   491.98     0  02:06           0        4.38       0.145
  WS02006111           JUNCTION      0.00   505.31     0  02:11           0        4.38       0.022
  WS02006112           JUNCTION      0.00   491.90     0  02:08           0        4.37       0.460
  WS02006113           JUNCTION      0.00   490.32     0  02:10           0        4.38       0.032
  WS02006115           JUNCTION      0.00   488.54     0  02:08           0        4.35       0.156
  WS02006116           JUNCTION      0.00   488.23     0  02:11           0        4.35       0.022
  WS02006228           JUNCTION      0.00   490.60     0  01:59           0        4.36       0.048
  WS02006229           JUNCTION      0.00   489.96     0  02:06           0        4.36       0.124
  WS02006230           JUNCTION     10.28   539.77     0  01:54       0.293        4.37       0.115
  WS02006231           JUNCTION      0.00   542.36     0  02:02           0        4.07      -0.074
  WS02006232           JUNCTION      0.00   539.02     0  02:02           0        4.08       0.247
  WS02006234           JUNCTION      0.00   529.24     0  02:03           0        4.06      -0.433
  WS02006235           JUNCTION      0.00   545.14     0  01:50           0         4.1      -0.113
  WS02006238           JUNCTION      0.00   424.32     0  02:17           0        3.72      -0.057
  WS02006239           JUNCTION      0.00   419.66     0  02:38           0        3.68      -0.188
  WS02006240           JUNCTION      0.00   418.06     0  01:44           0        3.66      -0.103
  WS02006242           JUNCTION      0.00   418.56     0  01:44           0        3.66      -0.028
  WS02006243           JUNCTION      0.00   419.55     0  02:25           0        3.66       0.087
  WS02006245           JUNCTION      0.00   419.66     0  01:44           0        3.68       0.363
  WS02006247           JUNCTION      0.00   419.84     0  02:32           0        3.68      -0.001
  WS02006248           JUNCTION      0.00   420.41     0  02:32           0        3.69       0.097
  WS02006249           JUNCTION      0.00   483.46     0  01:29           0        3.71       0.283
  WS02006251           JUNCTION      0.08   407.50     0  01:29     0.00219        3.71      -0.029
  WS02006252           JUNCTION      0.00   400.00     0  00:00           0         3.7      -0.039
  WS02006256           JUNCTION      0.00   309.74     0  01:46           0       0.726     -10.799
  WSF200               JUNCTION      0.00   486.67     0  02:15           0        4.24       0.007
  YS02001580           JUNCTION      0.00   111.30     0  01:39           0     0.00425       0.702
  YS02001583           JUNCTION      0.00   150.02     0  01:39           0      0.0154      -4.115
  YS02001586           JUNCTION    983.33   983.33     0  01:53        2.54        2.56       0.049
  YS02001590           JUNCTION      0.00   318.38     0  02:18           0        1.72      -0.026
  YS02001593           JUNCTION      0.00   318.23     0  02:18           0        1.72       0.015
  YS02001596           JUNCTION      0.00   317.89     0  02:27           0        1.72       0.001
  YS02001600           JUNCTION      0.00   317.94     0  01:52           0        1.72       0.017
  YS02001601           JUNCTION   1726.27  2043.54     0  01:51        3.44        5.16       0.020
  YS02001602           JUNCTION      0.00   517.73     0  01:38           0        2.81       0.020
  YS02001605           JUNCTION      0.00   517.74     0  01:38           0        2.65       0.024
  YS02001607           JUNCTION      0.00   517.47     0  01:38           0        2.65       0.076
  YS02001610           JUNCTION      0.00   950.60     0  01:55           0        3.24       0.079
  YS02001613           JUNCTION      0.00   614.26     0  01:55           0        2.55       0.062
  YS02001616           JUNCTION      0.00   614.38     0  01:55           0        2.55       0.021
  YS02001619           JUNCTION   1741.03  1741.03     0  01:52        4.09        6.05       0.001
  YS02001622           JUNCTION      0.00  1053.75     0  01:53           0        5.43       0.002
  YS02001625           JUNCTION      0.00  1503.01     0  01:55           0        5.79       0.160
  YS02001629           JUNCTION      0.00   926.83     0  01:42           0        4.52       0.021
  YS02001633           JUNCTION   1297.99  1387.36     0  01:42        2.53        6.56       0.055
  YS02001641           JUNCTION      0.00  1387.08     0  01:42           0        6.09       0.049
  YS02001644           JUNCTION   1158.03  1808.01     0  01:42        2.19        8.28       0.041
  YS02001647           JUNCTION      0.00  1807.71     0  01:42           0        7.41       0.005
  YS02001649           JUNCTION      0.00  2068.96     0  01:42           0        9.44       0.007
  YS02001652           JUNCTION      0.00  1131.19     0  01:49           0        2.02      -0.091
  YS02001655           JUNCTION      0.15  1131.07     0  01:49     0.00439        2.02       0.006
  YS02001658           JUNCTION      0.00  1131.04     0  01:49           0        2.02      -0.008
  YS02001661           JUNCTION      0.00  1130.35     0  01:49           0        2.02       0.013
  YS02001664           JUNCTION   1122.58  1122.58     0  01:50        2.02        2.02      -0.006
  YS02001745           JUNCTION    714.13   714.13     0  01:50        1.21        1.21       0.103
  YS02001748           JUNCTION      0.04   722.94     0  01:49     0.00128        1.21      -0.149
  YS02001751           JUNCTION      0.01   723.17     0  01:49    0.000313        1.21       0.057
  YS02001754           JUNCTION      0.26   723.40     0  01:49     0.00741        1.22      -0.080
  YS02001757           JUNCTION      0.00  3526.40     0  01:52           0        14.5       0.046
  YS02001759           JUNCTION    991.96  1486.76     0  01:51        1.67        3.79      -0.008
  YS02001762           JUNCTION      0.00   832.55     0  01:59           0        2.12       0.006
  YS02001765           JUNCTION      0.00   833.31     0  01:59           0        2.12       0.013
  YS02001767           JUNCTION      0.54   832.79     0  01:59      0.0152        2.12      -0.002
  YS02001770           JUNCTION   1399.85  1399.85     0  01:51        2.54        2.58      -0.006
  YS02001774           JUNCTION      0.00   848.11     0  01:51           0       0.493       0.248
  YS02001779           JUNCTION      0.01   848.04     0  01:51    0.000142       0.447      -0.116
  YS02001783           JUNCTION      0.00  1170.06     0  01:47           0        5.27       0.004
  YS02001784           JUNCTION      1.06  1171.21     0  01:48      0.0302         5.3       0.011
  YS02001786           JUNCTION      0.06  1171.33     0  01:48      0.0016         5.3       0.014
  YS02001788           JUNCTION      0.07  1171.80     0  01:48     0.00202         5.3       0.005
  YS02001790           JUNCTION      0.15  1183.19     0  01:47     0.00442         5.3      -0.002
  YS02001791           JUNCTION      0.00  1291.67     0  01:48           0         5.3      -0.002
  YS02001793           JUNCTION      0.00  1261.43     0  01:49           0         5.3      -0.046
  YS02001882           JUNCTION      0.00    43.52     0  01:40           0      0.0137       5.466
  YS02001884           JUNCTION      0.00    73.26     0  01:40           0      0.0504       5.499
  YS02001887           JUNCTION   1060.63  1060.79     0  01:49        1.73        1.77       0.251
  YS02001890           JUNCTION      0.00  1060.73     0  01:49           0        1.73       0.303
  YS02001895           JUNCTION      0.00   517.61     0  01:55           0        1.47       0.120
  YS02001898           JUNCTION      0.00   517.81     0  01:51           0        1.47       0.022
  YS02001901           JUNCTION      0.00   517.69     0  01:51           0        1.47       0.235
  YS02001904           JUNCTION      0.00   517.64     0  01:53           0        1.47       0.197
  YS02001907           JUNCTION      0.00  2646.38     0  01:51           0        5.31       0.342
  YS02001910           JUNCTION      0.00  1868.32     0  01:51           0        3.77       0.195
  YS02001915           JUNCTION   1252.58  1868.58     0  01:51        2.42        3.81       0.040
  YS02001918           JUNCTION      0.00   617.34     0  01:51           0        1.42       0.005
  YS02001920           JUNCTION      2.87   617.23     0  01:51      0.0818         1.4       0.081
  YS02001923           JUNCTION      0.04   613.57     0  01:51     0.00107         1.3      -0.019
  YS02001926           JUNCTION      0.05   613.57     0  01:51     0.00149        1.28       0.000
  YS02001929           JUNCTION    612.63   612.63     0  01:52        1.27        1.27      -0.050
  YS02006553           JUNCTION      0.00   800.80     0  02:18           0        2.92       0.408
  YS02006556           JUNCTION      0.00   801.13     0  02:18           0        2.93       0.282
  YS02006558           JUNCTION   1435.84  1435.84     0  01:50        2.54        5.37       0.060
  YS02006561           JUNCTION      0.00  1170.67     0  01:48           0        5.27       0.001
  YS02163301           JUNCTION      0.00   926.38     0  01:42           0        4.51       0.041
  YS02163601           JUNCTION      0.11  1387.25     0  01:42     0.00313        6.09       0.084
  YS02164001           JUNCTION      0.00  1387.45     0  01:42           0        6.09       0.046
  CC-1                 OUTFALL       0.00   683.00     0  00:00           0        6.32       0.000
  CC-2                 OUTFALL       0.00   683.00     0  00:00           0        6.32       0.000
  JK-1                 OUTFALL       0.00  1000.00     0  00:00           0        2.39       0.000
  JK-2                 OUTFALL       0.00  1000.00     0  00:00           0        2.39       0.000
  WSC                  OUTFALL       0.00   504.89     0  02:17           0        4.76       0.000
  CC-storage           STORAGE       0.00  3525.48     0  01:53           0        16.7      -0.301
  JK-storage           STORAGE       0.00  1386.00     0  01:45           0        5.46      -0.845
  
  
  **********************
  Node Surcharge Summary
  **********************
  
  Surcharging occurs when water rises above the top of the highest conduit.
  ---------------------------------------------------------------------
                                               Max. Height   Min. Depth
                                   Hours       Above Crown    Below Rim
  Node                 Type      Surcharged         Meters       Meters
  ---------------------------------------------------------------------
  WS02006109           JUNCTION        2.14          0.102        1.718
  WS02006228           JUNCTION        2.12          0.130        2.070
  WS02006229           JUNCTION        2.16          0.147        2.303
  WS02006231           JUNCTION        0.15          0.602        0.928
  WS02006232           JUNCTION        2.24          0.875        0.605
  WS02006234           JUNCTION        1.05          1.240        0.000
  WS02006235           JUNCTION        1.96          1.290        0.000
  WS02006238           JUNCTION        2.19          1.430        0.000
  WS02006239           JUNCTION        2.11          1.290        0.000
  WS02006240           JUNCTION        2.15          1.390        0.000
  WS02006242           JUNCTION        2.28          0.820        0.000
  WS02006243           JUNCTION        2.18          0.770        0.000
  WS02006245           JUNCTION        2.18          0.778        0.072
  WS02006247           JUNCTION        2.20          0.691        0.069
  WS02006248           JUNCTION        2.17          0.380        0.000
  WS02006249           JUNCTION        2.19          0.390        0.000
  WS02006251           JUNCTION        0.74          0.201        0.979
  WS02006252           JUNCTION        2.57          1.100        0.000
  WS02006256           JUNCTION        4.80          2.050        0.000
  YS02001580           JUNCTION        0.96          0.450        0.000
  YS02001583           JUNCTION        0.97          0.367        0.133
  YS02001586           JUNCTION        1.08          0.510        0.000
  YS02001590           JUNCTION        1.18          0.728        0.022
  YS02001593           JUNCTION        1.18          0.682        0.158
  YS02001596           JUNCTION        1.32          0.938        0.132
  YS02001600           JUNCTION        1.52          1.190        0.000
  YS02001601           JUNCTION        1.78          1.440        0.000
  YS02001602           JUNCTION        1.70          1.270        0.000
  YS02001605           JUNCTION        1.65          1.180        0.000
  YS02001607           JUNCTION        1.10          0.680        0.000
  YS02001610           JUNCTION        1.14          0.680        0.000
  YS02001613           JUNCTION        1.09          0.700        0.000
  YS02001616           JUNCTION        1.04          0.610        0.000
  YS02001619           JUNCTION        1.02          0.610        0.000
  YS02001622           JUNCTION        1.01          0.605        0.015
  YS02001625           JUNCTION        1.25          0.780        0.000
  YS02001629           JUNCTION        0.90          0.470        0.000
  YS02001633           JUNCTION        1.26          1.005        0.055
  YS02001641           JUNCTION        1.13          0.961        0.139
  YS02001644           JUNCTION        1.08          0.920        0.000
  YS02001647           JUNCTION        0.77          0.792        0.108
  YS02001649           JUNCTION        0.89          1.011        0.039
  YS02001652           JUNCTION        0.62          0.952        0.178
  YS02001655           JUNCTION        0.41          0.875        0.325
  YS02001658           JUNCTION        0.29          0.878        0.422
  YS02001661           JUNCTION        0.12          0.551        0.839
  YS02001748           JUNCTION        0.19          0.953        0.237
  YS02001751           JUNCTION        0.32          0.877        0.323
  YS02001754           JUNCTION        0.43          0.836        0.314
  YS02001757           JUNCTION        0.94          1.052        0.158
  YS02001759           JUNCTION        0.79          1.058        0.152
  YS02001762           JUNCTION        0.76          1.024        0.126
  YS02001765           JUNCTION        0.70          0.997        0.103
  YS02001767           JUNCTION        0.65          0.965        0.065
  YS02001770           JUNCTION        0.61          0.920        0.000
  YS02001774           JUNCTION        0.74          1.004        0.046
  YS02001779           JUNCTION        0.46          0.680        0.000
  YS02001783           JUNCTION        0.80          0.687        0.913
  YS02001784           JUNCTION        0.77          0.460        1.030
  YS02001786           JUNCTION        0.63          0.152        1.278
  YS02001882           JUNCTION        0.72          0.786        0.044
  YS02001884           JUNCTION        0.74          0.798        0.072
  YS02001887           JUNCTION        0.79          0.833        0.117
  YS02001890           JUNCTION        0.80          0.760        0.000
  YS02001895           JUNCTION        0.71          0.673        0.077
  YS02001898           JUNCTION        0.70          0.736        0.004
  YS02001901           JUNCTION        0.77          0.870        0.000
  YS02001904           JUNCTION        0.76          0.785        0.065
  YS02001907           JUNCTION        1.08          0.950        0.000
  YS02001910           JUNCTION        0.84          0.986        0.114
  YS02001915           JUNCTION        0.72          0.961        0.039
  YS02001918           JUNCTION        0.62          0.810        0.000
  YS02001920           JUNCTION        0.63          1.115        0.025
  YS02001923           JUNCTION        0.23          0.820        0.000
  YS02001926           JUNCTION        0.26          0.900        0.000
  YS02001929           JUNCTION        0.10          0.780        0.000
  YS02006553           JUNCTION        1.11          1.072        0.118
  YS02006556           JUNCTION        0.95          1.082        0.268
  YS02006558           JUNCTION        0.94          1.037        0.363
  YS02006561           JUNCTION        0.58          0.510        0.640
  YS02163301           JUNCTION        1.24          0.924        0.106
  YS02163601           JUNCTION        1.30          1.050        0.030
  YS02164001           JUNCTION        1.15          0.967        0.133
  
  
  *********************
  Node Flooding Summary
  *********************
  
  Flooding refers to all water that overflows a node, whether it ponds or not.
  --------------------------------------------------------------------------
                                                             Total   Maximum
                                 Maximum   Time of Max       Flood    Ponded
                        Hours       Rate    Occurrence      Volume     Depth
  Node                 Flooded       LPS   days hr:min    10^6 ltr    Meters
  --------------------------------------------------------------------------
  WS02006234              0.01     57.13      0  02:02       0.000     0.000
  WS02006235              0.01     27.69      0  02:36       0.000     0.000
  WS02006238              0.01      1.95      0  02:18       0.000     0.000
  WS02006239              0.01     14.83      0  02:10       0.000     0.000
  WS02006240              0.01     26.68      0  01:54       0.000     0.000
  WS02006242              0.02     31.57      0  02:36       0.001     0.000
  WS02006243              0.01      5.94      0  02:15       0.000     0.000
  WS02006248              0.24     26.74      0  01:58       0.011     0.000
  WS02006249              0.32     16.16      0  01:54       0.006     0.000
  WS02006252              0.01    245.63      0  00:00       0.000     0.000
  WS02006256              0.67    293.19      0  00:00       0.420     0.000
  YS02001580              0.01     95.62      0  01:39       0.000     0.000
  YS02001586              0.77    665.63      0  01:53       0.820     0.000
  YS02001600              0.01      0.72      0  01:39       0.000     0.000
  YS02001601              0.98   1645.74      0  01:51       2.351     0.000
  YS02001602              0.77     62.19      0  02:18       0.157     0.000
  YS02001605              0.01      3.21      0  01:39       0.000     0.000
  YS02001607              0.01      0.39      0  02:25       0.000     0.000
  YS02001610              0.68    950.38      0  01:55       1.283     0.000
  YS02001613              0.01      0.56      0  02:25       0.000     0.000
  YS02001616              0.09      1.16      0  01:48       0.000     0.000
  YS02001619              0.11     85.77      0  01:52       0.019     0.000
  YS02001625              0.59   1502.93      0  01:55       1.731     0.000
  YS02001629              0.22    256.78      0  01:49       0.126     0.000
  YS02001644              0.27   1600.67      0  01:50       0.854     0.000
  YS02001770              0.06     81.85      0  01:50       0.010     0.000
  YS02001779              0.25    848.00      0  01:51       0.426     0.000
  YS02001890              0.28    544.03      0  01:49       0.253     0.000
  YS02001901              0.01      1.78      0  01:43       0.000     0.000
  YS02001907              0.55   2645.49      0  01:51       2.455     0.000
  YS02001918              0.01    109.77      0  01:43       0.001     0.000
  YS02001923              0.01     59.14      0  01:43       0.000     0.000
  YS02001926              0.01     79.11      0  01:43       0.000     0.000
  YS02001929              0.01    229.30      0  01:43       0.001     0.000
  
  
  **********************
  Storage Volume Summary
  **********************
  
  ------------------------------------------------------------------------------------------------
                         Average    Avg   Evap  Exfil     Maximum    Max    Time of Max    Maximum
                          Volume   Pcnt   Pcnt   Pcnt      Volume   Pcnt     Occurrence    Outflow
  Storage Unit           1000 m³   Full   Loss   Loss     1000 m³   Full    days hr:min        LPS
  ------------------------------------------------------------------------------------------------
  CC-storage               1.454   22.7    0.0    0.0       3.694   57.6       0  02:38    1783.53
  JK-storage               0.006    2.0    0.0    0.0       0.150   51.6       0  00:00    2300.00
  
  
  ***********************
  Outfall Loading Summary
  ***********************
  
  -----------------------------------------------------------
                         Flow       Avg       Max       Total
                         Freq      Flow      Flow      Volume
  Outfall Node           Pcnt       LPS       LPS    10^6 ltr
  -----------------------------------------------------------
  CC-1                  58.47    683.00    683.00       6.323
  CC-2                  58.47    683.00    683.00       6.323
  JK-1                  17.24   1000.00   1000.00       2.389
  JK-2                  17.24   1000.00   1000.00       2.389
  WSC                   99.94    248.49    504.89       4.758
  -----------------------------------------------------------
  System                50.27   3614.49   3870.89      22.182
  
  
  ********************
  Link Flow Summary
  ********************
  
  -----------------------------------------------------------------------------
                                 Maximum  Time of Max   Maximum    Max/    Max/
                                  |Flow|   Occurrence   |Veloc|    Full    Full
  Link                 Type          LPS  days hr:min     m/sec    Flow   Depth
  -----------------------------------------------------------------------------
  1                    CONDUIT    504.89     0  02:17      2.75    0.18    0.28
  WS02003060WS02003069 CONDUIT    503.24     0  02:15      1.60    0.20    0.32
  WS02003066WSF200     CONDUIT    486.67     0  02:15      2.78    0.08    0.21
  WS02003067WS02003066 CONDUIT    486.69     0  02:15      1.14    0.16    0.40
  WS02003069WS02003072 CONDUIT    503.40     0  02:16      1.33    0.24    0.37
  WS02003072WS02003073 CONDUIT    503.24     0  02:17      1.39    1.09    0.36
  WS02004401WS02004402 CONDUIT    488.08     0  02:12      1.22    0.59    0.83
  WS02004402WS02004403 CONDUIT    487.71     0  02:12      1.24    0.70    0.85
  WS02004403WS02004404 CONDUIT    487.56     0  02:12      1.24    0.35    0.89
  WS02004404WS02004405 CONDUIT    487.81     0  02:12      1.45    4.78    0.93
  WS02004405WS02004406 CONDUIT    487.91     0  02:12      1.46    0.96    0.93
  WS02004406WS02004407 CONDUIT    487.50     0  02:12      0.98    0.22    0.60
  WS02004407WS02004409 CONDUIT    487.31     0  02:13      1.59    0.17    0.46
  WS02004409WS02004410 CONDUIT    487.11     0  02:13      1.06    0.63    0.64
  WS02004410WS02004411 CONDUIT    487.16     0  02:13      1.13    0.67    0.65
  WS02004411WS02004412 CONDUIT    486.95     0  02:14      1.20    0.69    0.66
  WS02004412WS02004413 CONDUIT    486.90     0  02:14      1.22    0.33    0.75
  WS02004413WS02003067 CONDUIT    486.64     0  02:14      1.05    0.21    0.57
  WS02006109WS02006110 CONDUIT    491.98     0  02:06      0.98    0.95    0.99
  WS02006110WS02006113 CONDUIT    490.32     0  02:10      1.18    0.45    0.77
  WS02006111WS02006112 CONDUIT    491.90     0  02:08      1.95    0.23    0.66
  WS02006112WS02006115 CONDUIT    488.54     0  02:08      0.82    0.29    0.85
  WS02006113WS02006111 CONDUIT    505.31     0  02:11      2.38    0.61    0.44
  WS02006115WS02006116 CONDUIT    488.23     0  02:11      1.29    0.63    0.72
  WS02006116WS02004401 CONDUIT    488.32     0  02:11      1.21    0.67    0.80
  WS02006228WS02006109 CONDUIT    490.53     0  02:06      1.06    2.14    1.00
  WS02006229WS02006228 CONDUIT    490.60     0  01:59      1.12    1.62    1.00
  WS02006230WS02006229 CONDUIT    489.96     0  02:06      1.27   10.90    1.00
  WS02006231WS02006230 CONDUIT    529.49     0  01:54      1.42    8.03    0.95
  WS02006232WS02006231 CONDUIT    542.36     0  02:02      1.41    1.14    1.00
  WS02006234WS02006232 CONDUIT    539.02     0  02:02      1.40    1.09    1.00
  WS02006235WS02006234 CONDUIT    529.24     0  02:03      1.38    5.58    1.00
  WS02006238WS02006235 CONDUIT    439.93     0  02:05      1.45    0.98    1.00
  WS02006239WS02006238 CONDUIT    424.32     0  02:17      1.18    1.36    1.00
  WS02006240WS02006239 CONDUIT    419.66     0  02:38      1.24    1.32    1.00
  WS02006242WS02006240 CONDUIT    418.06     0  01:44      1.16    1.66    1.00
  WS02006243WS02006242 CONDUIT    418.56     0  01:44      1.42    0.89    1.00
  WS02006245WS02006243 CONDUIT    419.55     0  02:25      1.44    1.24    1.00
  WS02006247WS02006245 CONDUIT    419.66     0  01:44      1.43    3.33    1.00
  WS02006248WS02006247 CONDUIT    419.84     0  02:32      1.43    0.91    1.00
  WS02006249WS02006248 CONDUIT    420.41     0  02:32      1.39    2.30    1.00
  WS02006251WS02006249 CONDUIT    483.46     0  01:29      2.02    1.39    1.00
  WS02006252WS02006251 CONDUIT    407.42     0  01:29     18.84    1.50    1.00
  WS02006256WS02006235 CONDUIT    288.91     0  00:00      4.23    3.06    1.00
  WSF200WS02003060     CONDUIT    486.78     0  02:15      2.01    0.11    0.27
  YS02001580YS02001583 CONDUIT    111.30     0  01:39      0.63    0.43    1.00
  YS02001583YS02001586 CONDUIT    150.02     0  01:39      0.63    0.23    1.00
  YS02001586YS02001590 CONDUIT    318.38     0  02:18      1.28    0.56    1.00
  YS02001590YS02001593 CONDUIT    318.23     0  02:18      1.13    2.00    1.00
  YS02001593YS02001596 CONDUIT    317.89     0  02:27      1.75    0.50    1.00
  YS02001596YS02001600 CONDUIT    317.94     0  01:52      1.25    0.62    1.00
  YS02001600YS02001601 CONDUIT    317.97     0  02:18      1.12    0.55    1.00
  YS02001601YS02001602 CONDUIT    517.73     0  01:38      1.83    1.87    1.00
  YS02001602YS02001605 CONDUIT    517.74     0  01:38      1.83   10.96    1.00
  YS02001605YS02001607 CONDUIT    517.47     0  01:38      1.83    2.84    1.00
  YS02001607YS02001610 CONDUIT    518.06     0  01:38      0.66    0.49    1.00
  YS02001610YS02001613 CONDUIT    614.75     0  01:55      0.78    0.71    1.00
  YS02001613YS02001616 CONDUIT    614.26     0  01:55      0.78    0.53    1.00
  YS02001616YS02001619 CONDUIT    614.38     0  01:55      0.78    1.07    1.00
  YS02001619YS02001622 CONDUIT   1053.75     0  01:53      1.34    1.55    1.00
  YS02001622YS02001625 CONDUIT   1053.56     0  01:53      1.34    0.56    1.00
  YS02001625YS02001629 CONDUIT    926.83     0  01:42      1.18    0.44    1.00
  YS02001629YS02163301 CONDUIT    926.38     0  01:42      1.18    1.14    1.00
  YS02001633YS02163601 CONDUIT   1387.14     0  01:42      1.77    1.46    1.00
  YS02001641YS02001644 CONDUIT   1386.15     0  01:42      1.76    4.48    1.00
  YS02001644YS02001647 CONDUIT   1807.71     0  01:42      2.30    1.06    1.00
  YS02001647YS02001649 CONDUIT   1807.06     0  01:42      2.34    0.95    1.00
  YS02001649YS02001757 CONDUIT   2056.17     0  01:42      2.62    1.25    1.00
  YS02001652YS02001649 CONDUIT   1131.55     0  01:49      1.44    0.56    1.00
  YS02001655YS02001652 CONDUIT   1131.19     0  01:49      1.44    0.55    1.00
  YS02001658YS02001655 CONDUIT   1130.91     0  01:49      1.89    0.48    1.00
  YS02001661YS02001658 CONDUIT   1131.04     0  01:49      2.33    0.44    1.00
  YS02001664YS02001661 CONDUIT   1130.35     0  01:49      2.33    0.35    0.88
  YS02001745YS02001748 CONDUIT    722.89     0  01:49      2.20    0.28    0.95
  YS02001748YS02001751 CONDUIT    723.16     0  01:49      1.72    0.37    1.00
  YS02001751YS02001754 CONDUIT    723.14     0  01:49      1.42    0.35    1.00
  YS02001754YS02001757 CONDUIT    723.85     0  01:49      0.92    0.29    1.00
  YS02001757CaochengTiaoxuchi CONDUIT   3525.48     0  01:53      6.55    1.53    1.00
  YS02001759YS02001757 CONDUIT   1486.51     0  01:51      1.89    1.06    1.00
  YS02001762YS02001759 CONDUIT    832.84     0  01:59      1.06    0.96    1.00
  YS02001765YS02001762 CONDUIT    832.55     0  01:59      1.06    0.78    1.00
  YS02001767YS02001765 CONDUIT    833.31     0  01:59      1.06    1.05    1.00
  YS02001770YS02001767 CONDUIT    832.25     0  01:59      1.06    3.30    1.00
  YS02001774YS02001770 CONDUIT    848.11     0  01:51      1.08    0.54    1.00
  YS02001779YS02001774 CONDUIT    848.04     0  01:51      1.08    0.43    1.00
  YS02001783YS02001784 CONDUIT   1170.15     0  01:48      2.33    1.61    1.00
  YS02001784YS02001785 CONDUIT   1171.27     0  01:48      2.33    2.73    1.00
  YS02001786YS02001788 CONDUIT   1171.73     0  01:48      2.49    2.26    0.89
  YS02001788YS02001790 CONDUIT   1183.03     0  01:47      2.73    0.87    0.84
  YS02001790YS02001791 CONDUIT   1291.67     0  01:48      3.43    1.41    0.71
  YS02001791YS02001793 CONDUIT   1261.43     0  01:49      6.78    0.54    0.43
  YS02001793JiankangQianchi CONDUIT   1386.00     0  01:45     14.96    0.11    0.50
  YS02001882YS02001884 CONDUIT     43.52     0  01:40      0.18    0.05    1.00
  YS02001884YS02001887 CONDUIT     73.26     0  01:40      0.13    0.10    1.00
  YS02001887YS02001890 CONDUIT   1060.73     0  01:49      1.35    1.82    1.00
  YS02001890YS02001895 CONDUIT    517.61     0  01:55      0.66    0.24    1.00
  YS02001895YS02001898 CONDUIT    517.81     0  01:51      0.66    0.90    1.00
  YS02001898YS02001901 CONDUIT    517.69     0  01:51      0.66    0.33    1.00
  YS02001901YS02001904 CONDUIT    517.64     0  01:53      0.66    0.80    1.00
  YS02001904YS02001907 CONDUIT    517.76     0  01:51      0.66    0.18    1.00
  YS02001907YS02006553 CONDUIT    800.80     0  02:18      0.89    0.94    1.00
  YS02001910YS02001907 CONDUIT   1869.11     0  01:51      2.38    1.05    1.00
  YS02001915YS02001910 CONDUIT   1868.32     0  01:51      2.38    0.93    1.00
  YS02001918YS02001915 CONDUIT    617.80     0  01:51      0.79    0.34    1.00
  YS02001920YS02001918 CONDUIT    617.34     0  01:51      0.79    0.60    1.00
  YS02001923YS02001920 CONDUIT    614.36     0  01:51      0.78    0.28    1.00
  YS02001926YS02001923 CONDUIT    613.53     0  01:51      0.95    0.88    1.00
  YS02001929YS02001926 CONDUIT    613.52     0  01:51      1.11    0.29    1.00
  YS02006553YS02006556 CONDUIT    801.13     0  02:18      1.02    0.69    1.00
  YS02006556YS02006558 CONDUIT    803.06     0  02:18      1.02    0.63    1.00
  YS02006558YS02006561 CONDUIT   1170.67     0  01:48      4.14    2.59    1.00
  YS02006561YS02001783 CONDUIT   1170.06     0  01:47      2.33    0.61    1.00
  YS02163301YS02001633 CONDUIT    925.98     0  01:42      1.18    0.87    1.00
  YS02163601YS02164001 CONDUIT   1387.45     0  01:42      1.77    1.23    1.00
  YS02164001YS02001641 CONDUIT   1387.08     0  01:42      1.77    1.89    1.00
  CC-R1                PUMP       683.00     0  00:00              1.00
  CC-R2                PUMP       683.00     0  00:00              1.00
  CC-S1                PUMP       200.00     0  00:00              1.00
  CC-S2                PUMP       200.00     0  00:00              1.00
  JK-R1                PUMP      1000.00     0  00:00              1.00
  JK-R2                PUMP      1000.00     0  00:00              1.00
  JK-S                 PUMP       300.00     0  00:00              1.00
  
  
  ***************************
  Flow Classification Summary
  ***************************
  
  -------------------------------------------------------------------------------------
                      Adjusted    ---------- Fraction of Time in Flow Class ---------- 
                       /Actual         Up    Down  Sub   Sup   Up    Down  Norm  Inlet 
  Conduit               Length    Dry  Dry   Dry   Crit  Crit  Crit  Crit  Ltd   Ctrl  
  -------------------------------------------------------------------------------------
  1                       1.00   0.00  0.00  0.00  0.00  1.00  0.00  0.00  0.56  0.00
  WS02003060WS02003069    1.00   0.00  0.00  0.00  0.98  0.02  0.00  0.00  0.70  0.00
  WS02003066WSF200        1.00   0.05  0.00  0.00  0.00  0.95  0.00  0.00  0.92  0.00
  WS02003067WS02003066    1.00   0.05  0.00  0.00  0.95  0.00  0.00  0.00  0.00  0.00
  WS02003069WS02003072    1.00   0.00  0.00  0.00  0.99  0.01  0.00  0.00  0.72  0.00
  WS02003072WS02003073    1.00   0.00  0.00  0.00  0.00  0.00  0.00  1.00  0.00  0.00
  WS02004401WS02004402    1.00   0.02  0.00  0.00  0.98  0.00  0.00  0.00  0.00  0.00
  WS02004402WS02004403    1.00   0.02  0.00  0.00  0.98  0.00  0.00  0.00  0.00  0.00
  WS02004403WS02004404    1.00   0.00  0.03  0.00  0.97  0.00  0.00  0.00  0.00  0.00
  WS02004404WS02004405    1.00   0.00  0.00  0.00  1.00  0.00  0.00  0.00  0.00  0.00
  WS02004405WS02004406    1.00   0.00  0.00  0.00  1.00  0.00  0.00  0.00  0.00  0.00
  WS02004406WS02004407    1.00   0.00  0.03  0.00  0.97  0.00  0.00  0.00  0.00  0.00
  WS02004407WS02004409    1.00   0.03  0.00  0.00  0.95  0.01  0.00  0.00  0.95  0.00
  WS02004409WS02004410    1.00   0.03  0.00  0.00  0.96  0.00  0.00  0.00  0.00  0.00
  WS02004410WS02004411    1.00   0.04  0.00  0.00  0.96  0.00  0.00  0.00  0.00  0.00
  WS02004411WS02004412    1.00   0.04  0.00  0.00  0.96  0.00  0.00  0.00  0.00  0.00
  WS02004412WS02004413    1.00   0.04  0.00  0.00  0.96  0.00  0.00  0.00  0.00  0.00
  WS02004413WS02003067    1.00   0.04  0.01  0.00  0.00  0.00  0.95  0.00  0.00  0.00
  WS02006109WS02006110    1.00   0.00  0.01  0.00  0.98  0.00  0.01  0.00  0.00  0.00
  WS02006110WS02006113    1.00   0.01  0.01  0.00  0.98  0.00  0.00  0.00  0.00  0.00
  WS02006111WS02006112    1.00   0.02  0.00  0.00  0.98  0.00  0.00  0.00  0.98  0.00
  WS02006112WS02006115    1.00   0.02  0.00  0.00  0.97  0.00  0.00  0.00  0.00  0.00
  WS02006113WS02006111    1.00   0.02  0.00  0.00  0.00  0.98  0.00  0.00  0.11  0.00
  WS02006115WS02006116    1.00   0.02  0.00  0.00  0.97  0.00  0.00  0.01  0.00  0.00
  WS02006116WS02004401    1.00   0.02  0.00  0.00  0.98  0.00  0.00  0.00  0.00  0.00
  WS02006228WS02006109    1.00   0.00  0.00  0.00  1.00  0.00  0.00  0.00  0.00  0.00
  WS02006229WS02006228    1.00   0.00  0.00  0.00  0.99  0.00  0.00  0.01  0.00  0.00
  WS02006230WS02006229    1.00   0.00  0.00  0.00  0.99  0.00  0.00  0.01  0.02  0.00
  WS02006231WS02006230    1.00   0.00  0.00  0.00  0.29  0.00  0.71  0.00  0.00  0.00
  WS02006232WS02006231    1.00   0.00  0.00  0.00  0.99  0.00  0.01  0.00  0.00  0.00
  WS02006234WS02006232    1.00   0.00  0.00  0.00  1.00  0.00  0.00  0.00  0.16  0.00
  WS02006235WS02006234    1.00   0.00  0.00  0.00  0.64  0.00  0.36  0.00  0.00  0.00
  WS02006238WS02006235    1.00   0.00  0.00  0.00  1.00  0.00  0.00  0.00  0.00  0.00
  WS02006239WS02006238    1.00   0.00  0.00  0.00  1.00  0.00  0.00  0.00  0.34  0.00
  WS02006240WS02006239    1.00   0.00  0.00  0.00  0.52  0.00  0.00  0.48  0.03  0.00
  WS02006242WS02006240    1.00   0.00  0.00  0.00  0.99  0.00  0.01  0.00  0.00  0.00
  WS02006243WS02006242    1.00   0.00  0.00  0.00  0.99  0.00  0.00  0.01  0.63  0.00
  WS02006245WS02006243    1.00   0.00  0.00  0.00  0.53  0.00  0.00  0.47  0.00  0.00
  WS02006247WS02006245    1.00   0.00  0.00  0.00  0.99  0.00  0.00  0.01  0.00  0.00
  WS02006248WS02006247    1.00   0.00  0.00  0.00  0.99  0.00  0.00  0.01  0.19  0.00
  WS02006249WS02006248    1.00   0.00  0.00  0.00  0.37  0.00  0.63  0.00  0.00  0.00
  WS02006251WS02006249    1.00   0.00  0.00  0.00  1.00  0.00  0.00  0.00  0.64  0.00
  WS02006252WS02006251    1.00   0.00  0.67  0.00  0.09  0.00  0.23  0.00  0.00  0.00
  WS02006256WS02006235    1.00   0.00  0.00  0.00  0.99  0.01  0.00  0.00  0.01  0.00
  WSF200WS02003060        1.00   0.00  0.05  0.00  0.47  0.48  0.00  0.00  0.66  0.00
  YS02001580YS02001583    1.00   0.20  0.55  0.00  0.24  0.00  0.00  0.00  0.65  0.00
  YS02001583YS02001586    1.00   0.40  0.30  0.00  0.30  0.00  0.00  0.00  0.65  0.00
  YS02001586YS02001590    1.00   0.13  0.00  0.00  0.46  0.04  0.00  0.37  0.34  0.00
  YS02001590YS02001593    1.00   0.13  0.01  0.00  0.17  0.00  0.70  0.00  0.00  0.00
  YS02001593YS02001596    1.00   0.13  0.00  0.00  0.19  0.01  0.00  0.67  0.02  0.00
  YS02001596YS02001600    1.00   0.13  0.00  0.00  0.24  0.01  0.00  0.61  0.04  0.00
  YS02001600YS02001601    1.00   0.13  0.01  0.00  0.86  0.00  0.00  0.00  0.57  0.00
  YS02001601YS02001602    1.00   0.13  0.01  0.00  0.87  0.00  0.00  0.00  0.00  0.00
  YS02001602YS02001605    1.00   0.13  0.00  0.00  0.87  0.00  0.00  0.00  0.00  0.00
  YS02001605YS02001607    1.00   0.13  0.00  0.00  0.87  0.00  0.00  0.00  0.00  0.00
  YS02001607YS02001610    1.00   0.13  0.00  0.00  0.86  0.00  0.00  0.00  0.01  0.00
  YS02001610YS02001613    1.00   0.13  0.00  0.00  0.87  0.00  0.00  0.00  0.00  0.00
  YS02001613YS02001616    1.00   0.13  0.00  0.00  0.87  0.00  0.00  0.00  0.00  0.00
  YS02001616YS02001619    1.00   0.13  0.00  0.00  0.87  0.00  0.00  0.00  0.00  0.00
  YS02001619YS02001622    1.00   0.13  0.00  0.00  0.87  0.00  0.00  0.00  0.27  0.00
  YS02001622YS02001625    1.00   0.13  0.00  0.00  0.87  0.00  0.00  0.00  0.03  0.00
  YS02001625YS02001629    1.00   0.13  0.04  0.00  0.21  0.00  0.63  0.00  0.00  0.00
  YS02001629YS02163301    1.00   0.14  0.01  0.00  0.85  0.00  0.00  0.00  0.00  0.00
  YS02001633YS02163601    1.00   0.00  0.01  0.00  0.99  0.00  0.00  0.00  0.14  0.00
  YS02001641YS02001644    1.00   0.00  0.01  0.00  0.99  0.00  0.00  0.00  0.00  0.00
  YS02001644YS02001647    1.00   0.00  0.16  0.00  0.84  0.00  0.00  0.00  0.00  0.00
  YS02001647YS02001649    1.00   0.00  0.16  0.00  0.54  0.30  0.00  0.00  0.55  0.00
  YS02001649YS02001757    1.00   0.00  0.00  0.00  0.68  0.32  0.00  0.00  0.46  0.00
  YS02001652YS02001649    1.00   0.00  0.00  0.00  0.97  0.03  0.00  0.00  0.71  0.00
  YS02001655YS02001652    1.00   0.00  0.00  0.00  0.23  0.01  0.00  0.76  0.07  0.00
  YS02001658YS02001655    1.00   0.00  0.14  0.00  0.67  0.19  0.00  0.00  0.67  0.00
  YS02001661YS02001658    1.00   0.14  0.00  0.00  0.49  0.37  0.00  0.00  0.72  0.00
  YS02001664YS02001661    1.00   0.13  0.00  0.00  0.70  0.17  0.00  0.00  0.84  0.00
  YS02001745YS02001748    1.00   0.00  0.00  0.00  0.10  0.01  0.00  0.89  0.07  0.00
  YS02001748YS02001751    1.00   0.00  0.00  0.00  0.82  0.18  0.00  0.00  0.79  0.00
  YS02001751YS02001754    1.00   0.00  0.00  0.00  0.18  0.01  0.00  0.81  0.04  0.00
  YS02001754YS02001757    1.00   0.00  0.00  0.00  1.00  0.00  0.00  0.00  0.80  0.00
  YS02001757CaochengTiaoxuchi    1.00   0.00  0.00  0.00  0.81  0.19  0.00  0.00  0.73  0.00
  YS02001759YS02001757    1.00   0.00  0.00  0.00  0.99  0.01  0.00  0.00  0.60  0.00
  YS02001762YS02001759    1.00   0.00  0.00  0.00  1.00  0.00  0.00  0.00  0.04  0.00
  YS02001765YS02001762    1.00   0.00  0.00  0.00  1.00  0.00  0.00  0.00  0.70  0.00
  YS02001767YS02001765    1.00   0.00  0.00  0.00  1.00  0.00  0.00  0.00  0.00  0.00
  YS02001770YS02001767    1.00   0.00  0.00  0.00  1.00  0.00  0.00  0.00  0.00  0.00
  YS02001774YS02001770    1.00   0.00  0.13  0.00  0.72  0.00  0.15  0.00  0.02  0.00
  YS02001779YS02001774    1.00   0.00  0.00  0.00  1.00  0.00  0.00  0.00  0.75  0.00
  YS02001783YS02001784    1.00   0.00  0.16  0.00  0.84  0.00  0.00  0.00  0.54  0.00
  YS02001784YS02001785    1.00   0.00  0.00  0.00  1.00  0.00  0.00  0.00  0.15  0.00
  YS02001786YS02001788    1.00   0.00  0.00  0.00  0.79  0.21  0.00  0.00  0.00  0.00
  YS02001788YS02001790    1.00   0.00  0.00  0.00  0.21  0.79  0.00  0.00  0.77  0.00
  YS02001790YS02001791    1.00   0.00  0.00  0.00  0.01  0.99  0.00  0.00  0.16  0.00
  YS02001791YS02001793    1.00   0.00  0.00  0.00  0.00  1.00  0.00  0.00  0.01  0.00
  YS02001793JiankangQianchi    1.00   0.00  0.00  0.00  0.41  0.58  0.00  0.00  0.75  0.00
  YS02001882YS02001884    1.00   0.14  0.01  0.00  0.85  0.00  0.00  0.00  0.00  0.00
  YS02001884YS02001887    1.00   0.06  0.05  0.00  0.89  0.00  0.00  0.00  0.00  0.00
  YS02001887YS02001890    1.00   0.00  0.00  0.00  0.97  0.00  0.03  0.00  0.00  0.00
  YS02001890YS02001895    1.00   0.00  0.15  0.00  0.85  0.00  0.00  0.00  0.00  0.00
  YS02001895YS02001898    1.00   0.15  0.00  0.00  0.83  0.00  0.01  0.00  0.00  0.00
  YS02001898YS02001901    1.00   0.15  0.00  0.00  0.85  0.00  0.00  0.00  0.00  0.00
  YS02001901YS02001904    1.00   0.15  0.00  0.00  0.85  0.00  0.00  0.00  0.00  0.00
  YS02001904YS02001907    1.00   0.00  0.15  0.00  0.85  0.00  0.00  0.00  0.00  0.00
  YS02001907YS02006553    1.00   0.00  0.02  0.00  0.98  0.00  0.00  0.00  0.00  0.00
  YS02001910YS02001907    1.00   0.00  0.00  0.00  0.97  0.00  0.00  0.03  0.12  0.00
  YS02001915YS02001910    1.00   0.00  0.00  0.00  0.97  0.03  0.00  0.00  0.13  0.00
  YS02001918YS02001915    1.00   0.00  0.01  0.00  0.98  0.02  0.00  0.00  0.69  0.00
  YS02001920YS02001918    1.00   0.00  0.01  0.00  0.99  0.00  0.00  0.00  0.00  0.00
  YS02001923YS02001920    1.00   0.00  0.00  0.00  1.00  0.00  0.00  0.00  0.89  0.00
  YS02001926YS02001923    1.00   0.00  0.07  0.00  0.09  0.00  0.83  0.00  0.00  0.00
  YS02001929YS02001926    1.00   0.00  0.13  0.00  0.87  0.00  0.00  0.00  0.79  0.00
  YS02006553YS02006556    1.00   0.01  0.00  0.00  0.99  0.00  0.00  0.00  0.03  0.00
  YS02006556YS02006558    1.00   0.00  0.00  0.00  1.00  0.00  0.00  0.00  0.00  0.00
  YS02006558YS02006561    1.00   0.16  0.00  0.00  0.09  0.75  0.00  0.00  0.17  0.00
  YS02006561YS02001783    1.00   0.16  0.00  0.00  0.13  0.71  0.00  0.00  0.64  0.00
  YS02163301YS02001633    1.00   0.00  0.14  0.00  0.86  0.00  0.00  0.00  0.00  0.00
  YS02163601YS02164001    1.00   0.00  0.08  0.00  0.92  0.00  0.00  0.00  0.00  0.00
  YS02164001YS02001641    1.00   0.01  0.08  0.00  0.92  0.00  0.00  0.00  0.05  0.00
  
  
  *************************
  Conduit Surcharge Summary
  *************************
  
  ----------------------------------------------------------------------------
                                                           Hours        Hours 
                         --------- Hours Full --------   Above Full   Capacity
  Conduit                Both Ends  Upstream  Dnstream   Normal Flow   Limited
  ----------------------------------------------------------------------------
  WS02003072WS02003073        0.01      0.01      0.01      0.97         0.01
  WS02004404WS02004405        0.01      0.01      0.01      2.76         0.01
  WS02006109WS02006110        0.01      0.01      2.22      0.01         0.01
  WS02006110WS02006113        0.01      0.01      2.19      0.01         0.01
  WS02006111WS02006112        0.01      0.01      2.24      0.01         0.01
  WS02006228WS02006109        2.14      2.23      2.14      2.49         2.14
  WS02006229WS02006228        2.12      2.16      2.12      2.39         2.12
  WS02006230WS02006229        2.29      2.33      2.29      3.12         2.29
  WS02006231WS02006230        0.01      0.01      0.35      2.84         0.01
  WS02006232WS02006231        0.14      0.14      2.24      0.36         0.01
  WS02006234WS02006232        1.78      1.78      2.24      0.15         0.45
  WS02006235WS02006234        0.93      1.02      1.92      2.72         0.26
  WS02006238WS02006235        2.11      2.11      2.26      0.01         0.13
  WS02006239WS02006238        2.19      2.24      2.19      2.40         1.77
  WS02006240WS02006239        2.09      2.18      2.09      2.41         1.76
  WS02006242WS02006240        2.15      2.15      2.32      2.48         0.05
  WS02006243WS02006242        2.20      2.20      2.28      0.01         0.37
  WS02006245WS02006243        2.18      2.19      2.18      2.47         1.77
  WS02006247WS02006245        2.18      2.22      2.18      2.57         1.98
  WS02006248WS02006247        2.18      2.18      2.20      0.01         0.57
  WS02006249WS02006248        2.17      2.17      2.19      2.56         0.01
  WS02006251WS02006249        2.19      2.20      2.19      2.54         1.67
  WS02006252WS02006251        2.57      2.57      2.57      2.57         0.01
  WS02006256WS02006235        2.32      2.77      4.28      0.56         0.13
  YS02001580YS02001583        0.96      0.96      0.98      0.01         0.01
  YS02001583YS02001586        0.97      0.97      1.08      0.01         0.01
  YS02001586YS02001590        1.09      1.09      1.18      0.01         0.01
  YS02001590YS02001593        1.18      1.18      1.20      1.30         0.01
  YS02001593YS02001596        1.19      1.19      1.32      0.01         0.01
  YS02001596YS02001600        1.39      1.39      1.52      0.01         0.01
  YS02001600YS02001601        1.57      1.57      1.78      0.01         0.01
  YS02001601YS02001602        1.70      1.70      1.81      1.55         0.01
  YS02001602YS02001605        1.65      1.65      1.70      2.49         0.01
  YS02001605YS02001607        1.62      1.65      1.62      1.75         1.62
  YS02001607YS02001610        1.10      1.10      1.14      0.01         0.01
  YS02001610YS02001613        1.09      1.09      1.14      0.01         0.01
  YS02001613YS02001616        1.04      1.04      1.09      0.01         0.01
  YS02001616YS02001619        1.02      1.02      1.04      0.10         0.08
  YS02001619YS02001622        1.01      1.02      1.01      1.23         0.99
  YS02001622YS02001625        1.01      1.01      1.25      0.01         0.01
  YS02001625YS02001629        0.90      0.90      1.25      0.01         0.01
  YS02001629YS02163301        1.23      1.23      1.24      0.49         0.44
  YS02001633YS02163601        1.26      1.26      1.30      0.71         0.71
  YS02001641YS02001644        1.08      1.13      1.08      1.83         1.07
  YS02001644YS02001647        0.77      0.77      1.08      0.04         0.01
  YS02001647YS02001649        0.77      0.77      0.89      0.01         0.01
  YS02001649YS02001757        0.88      0.89      0.94      0.56         0.50
  YS02001652YS02001649        0.66      0.66      0.89      0.01         0.01
  YS02001655YS02001652        0.41      0.41      0.62      0.01         0.01
  YS02001658YS02001655        0.29      0.29      0.41      0.01         0.01
  YS02001661YS02001658        0.12      0.12      0.29      0.01         0.01
  YS02001664YS02001661        0.01      0.01      0.17      0.01         0.01
  YS02001745YS02001748        0.01      0.01      0.19      0.01         0.01
  YS02001748YS02001751        0.25      0.25      0.32      0.01         0.01
  YS02001751YS02001754        0.32      0.32      0.43      0.01         0.01
  YS02001754YS02001757        0.49      0.49      0.94      0.01         0.01
  YS02001757CaochengTiaoxuchi        0.51      0.94      1.06      0.69         0.21
  YS02001759YS02001757        0.79      0.79      0.94      0.12         0.13
  YS02001762YS02001759        0.75      0.75      0.79      0.01         0.04
  YS02001765YS02001762        0.70      0.70      0.75      0.01         0.01
  YS02001767YS02001765        0.65      0.65      0.70      0.03         0.06
  YS02001770YS02001767        0.65      0.66      0.65      0.84         0.60
  YS02001774YS02001770        0.61      0.61      0.74      0.01         0.01
  YS02001779YS02001774        0.46      0.46      0.74      0.01         0.01
  YS02001783YS02001784        0.77      0.80      0.77      0.99         0.77
  YS02001784YS02001785        0.63      0.77      0.63      1.35         0.63
  YS02001786YS02001788        0.01      0.63      0.01      1.16         0.01
  YS02001790YS02001791        0.01      0.01      0.01      0.75         0.01
  YS02001882YS02001884        0.73      0.73      0.74      0.01         0.01
  YS02001884YS02001887        0.77      0.77      0.79      0.01         0.01
  YS02001887YS02001890        0.80      0.80      0.82      0.21         0.01
  YS02001890YS02001895        0.71      0.71      0.84      0.01         0.01
  YS02001895YS02001898        0.70      0.70      0.71      0.01         0.01
  YS02001898YS02001901        0.72      0.72      0.77      0.01         0.01
  YS02001901YS02001904        0.76      0.76      0.77      0.01         0.01
  YS02001904YS02001907        0.76      0.76      1.12      0.01         0.01
  YS02001907YS02006553        1.37      1.37      1.48      0.01         0.01
  YS02001910YS02001907        0.84      0.84      1.08      0.07         0.07
  YS02001915YS02001910        0.72      0.72      0.84      0.01         0.01
  YS02001918YS02001915        0.62      0.62      0.72      0.01         0.01
  YS02001920YS02001918        0.61      0.61      0.63      0.01         0.01
  YS02001923YS02001920        0.56      0.56      0.63      0.01         0.01
  YS02001926YS02001923        0.23      0.23      0.26      0.01         0.01
  YS02001929YS02001926        0.10      0.10      0.26      0.01         0.01
  YS02006553YS02006556        0.95      0.95      1.11      0.01         0.01
  YS02006556YS02006558        1.02      1.02      1.15      0.01         0.01
  YS02006558YS02006561        0.65      0.94      0.65      1.28         0.65
  YS02006561YS02001783        0.58      0.58      0.80      0.01         0.01
  YS02163301YS02001633        1.24      1.24      1.29      0.01         0.01
  YS02163601YS02164001        1.15      1.15      1.30      0.33         0.01
  YS02164001YS02001641        1.13      1.15      1.13      1.06         0.87
  
  
  ***************
  Pumping Summary
  ***************
  
  ---------------------------------------------------------------------------------------------------------
                                                  Min       Avg       Max     Total     Power    % Time Off
                        Percent   Number of      Flow      Flow      Flow    Volume     Usage    Pump Curve
  Pump                 Utilized   Start-Ups       LPS       LPS       LPS  10^6 ltr     Kw-hr    Low   High
  ---------------------------------------------------------------------------------------------------------
  CC-R1                   32.48           3      0.00    683.00    683.00     6.322    108.14    0.0   58.6
  CC-R2                   32.48           3      0.00    683.00    683.00     6.322    108.14    0.0   58.6
  CC-S1                   32.48           3      0.00    200.00    200.00     1.851     12.89    0.0   21.4
  CC-S2                   32.48           3      0.00    200.00    200.00     1.851     12.89    0.0   21.4
  JK-R1                    8.50         344      0.00   1000.00   1000.00     2.423      6.48    0.0    0.0
  JK-R2                    8.50         344      0.00   1000.00   1000.00     2.423      6.48    0.0    0.0
  JK-S                     8.50         344      0.00    300.00    300.00     0.727     16.43    0.0    0.0
  

  Analysis begun on:  Tue Apr 22 10:15:57 2025
  Analysis ended on:  Tue Apr 22 10:15:59 2025
  Total elapsed time: 00:00:02