
  EPA STORM WATER MANAGEMENT MODEL - VERSION 5.2 (Build 5.2.4)
  PYSWMM TOOLKIT API - VERSION v1.0 (2023-11-27)
  ------------------------------------------------------------

  WARNING 04: minimum elevation drop used for Conduit WS02004404WS02004405
  WARNING 03: negative offset ignored for Link YS02001904YS02001907
  
  ****************
  Analysis Options
  ****************
  Flow Units ............... LPS
  Process Models:
    Rainfall/Runoff ........ YES
    RDII ................... NO
    Snowmelt ............... NO
    Groundwater ............ NO
    Flow Routing ........... YES
    Ponding Allowed ........ NO
    Water Quality .......... NO
  Infiltration Method ...... HORTON
  Flow Routing Method ...... DYNWAVE
  Surcharge Method ......... EXTRAN
  Starting Date ............ 08/28/2015 08:00:00
  Ending Date .............. 08/28/2015 16:00:00
  Antecedent Dry Days ...... 8.0
  Report Time Step ......... 00:01:00
  Wet Time Step ............ 00:01:00
  Dry Time Step ............ 00:01:00
  Routing Time Step ........ 30.00 sec
  Variable Time Step ....... YES
  Maximum Trials ........... 8
  Number of Threads ........ 4
  Head Tolerance ........... 0.001500 m
  
  
  **************************        Volume         Depth
  Runoff Quantity Continuity     hectare-m            mm
  **************************     ---------       -------
  Total Precipitation ......         2.430        73.262
  Evaporation Loss .........         0.000         0.000
  Infiltration Loss ........         0.099         2.995
  Surface Runoff ...........         2.298        69.291
  Final Storage ............         0.033         0.996
  Continuity Error (%) .....        -0.028
  
  
  **************************        Volume        Volume
  Flow Routing Continuity        hectare-m      10^6 ltr
  **************************     ---------     ---------
  Dry Weather Inflow .......         0.025         0.248
  Wet Weather Inflow .......         2.298        22.980
  Groundwater Inflow .......         0.000         0.000
  RDII Inflow ..............         0.000         0.000
  External Inflow ..........         0.083         0.825
  External Outflow .........         1.823        18.232
  Flooding Loss ............         0.755         7.546
  Evaporation Loss .........         0.000         0.000
  Exfiltration Loss ........         0.000         0.000
  Initial Stored Volume ....         0.243         2.431
  Final Stored Volume ......         0.088         0.881
  Continuity Error (%) .....        -0.661
  
  
  *************************
  Highest Continuity Errors
  *************************
  Node WS02006256 (-13.01%)
  Node YS02001583 (-9.49%)
  Node YS02001884 (5.32%)
  Node JK-storage (-1.77%)
  
  
  ***************************
  Time-Step Critical Elements
  ***************************
  Link YS02001793JiankangQianchi (22.67%)
  Link WS02004404WS02004405 (22.12%)
  Link WS02006238WS02006235 (18.73%)
  Link WS02003066WSF200 (11.47%)
  Link YS02006556YS02006558 (4.98%)
  
  
  ********************************
  Highest Flow Instability Indexes
  ********************************
  Link WS02006252WS02006251 (35)
  Link WS02006229WS02006228 (35)
  Link WS02006113WS02006111 (34)
  Link WS02006256WS02006235 (27)
  Link WS02006238WS02006235 (24)
  
  
  *********************************
  Most Frequent Nonconverging Nodes
  *********************************
  Node CC-1 (38.20%)
  Node CC-2 (38.20%)
  Node JK-1 (38.20%)
  Node JK-2 (38.20%)
  Node WSC (38.20%)
  
  
  *************************
  Routing Time Step Summary
  *************************
  Minimum Time Step           :     0.00 sec
  Average Time Step           :     3.13 sec
  Maximum Time Step           :     6.43 sec
  % of Time in Steady State   :     0.00
  Average Iterations per Step :     4.63
  % of Steps Not Converging   :    38.20
  Time Step Frequencies       :
     30.000 - 13.228 sec      :     0.00 %
     13.228 -  5.833 sec      :    20.61 %
      5.833 -  2.572 sec      :    28.69 %
      2.572 -  1.134 sec      :    36.79 %
      1.134 -  0.500 sec      :    13.91 %
  
  
  ***************************
  Subcatchment Runoff Summary
  ***************************
  
  ------------------------------------------------------------------------------------------------------------------------------
                            Total      Total      Total      Total     Imperv       Perv      Total       Total     Peak  Runoff
                           Precip      Runon       Evap      Infil     Runoff     Runoff     Runoff      Runoff   Runoff   Coeff
  Subcatchment                 mm         mm         mm         mm         mm         mm         mm    10^6 ltr      LPS
  ------------------------------------------------------------------------------------------------------------------------------
  sub60                     73.26       0.00       0.00       1.81      63.27       6.98      70.26        0.92   677.23   0.959
  sub61                     73.26       0.00       0.00       2.62      59.68       9.84      69.52        1.28   938.08   0.949
  sub62                     73.26       0.00       0.00       1.21      66.12       4.66      70.78        1.94  1302.61   0.966
  sub63                     73.26       0.00       0.00       4.82      51.05      16.44      67.49        1.53  1035.80   0.921
  sub64                     73.26       0.00       0.00       2.44      61.07       8.56      69.63        1.67  1057.22   0.950
  sub65                     73.26       0.00       0.00       2.11      62.49       7.42      69.91        1.92  1177.30   0.954
  sub66                     73.26       0.00       0.00       5.94      50.94      15.30      66.25        3.09  1511.84   0.904
  sub67                     73.26       0.00       0.00       1.17      66.17       4.70      70.86        1.32  1021.12   0.967
  sub68                     73.26       0.00       0.00       2.17      61.82       8.09      69.91        1.92  1342.68   0.954
  sub69                     73.26       0.00       0.00       1.92      62.17       9.07      71.23        2.64  1567.79   0.972
  sub70                     73.26       0.00       0.00       6.41      48.19      18.50      66.69        1.93   847.09   0.910
  sub71                     73.26       0.00       0.00       1.24      66.08       4.63      70.70        1.85  1143.15   0.965
  sub72                     73.26       0.00       0.00       1.10      66.73       4.03      70.76        0.97   547.41   0.966
  
  
  ******************
  Node Depth Summary
  ******************
  
  ---------------------------------------------------------------------------------
                                 Average  Maximum  Maximum  Time of Max    Reported
                                   Depth    Depth      HGL   Occurrence   Max Depth
  Node                 Type       Meters   Meters   Meters  days hr:min      Meters
  ---------------------------------------------------------------------------------
  WS02003060           JUNCTION     0.21     0.36     5.30     0  02:11        0.36
  WS02003066           JUNCTION     0.17     0.29     5.84     0  02:10        0.29
  WS02003067           JUNCTION     0.45     0.68     6.00     0  02:10        0.68
  WS02003069           JUNCTION     0.23     0.41     4.99     0  02:12        0.41
  WS02003072           JUNCTION     0.29     0.48     4.85     0  02:12        0.48
  WS02003073           JUNCTION     0.16     0.28     4.35     0  02:16        0.28
  WS02004401           JUNCTION     0.55     0.81     6.81     0  02:08        0.81
  WS02004402           JUNCTION     0.58     0.84     6.80     0  02:08        0.84
  WS02004403           JUNCTION     0.60     0.86     6.79     0  02:08        0.86
  WS02004404           JUNCTION     0.67     0.93     6.78     0  02:08        0.93
  WS02004405           JUNCTION     0.67     0.92     6.77     0  02:08        0.92
  WS02004406           JUNCTION     0.68     0.93     6.76     0  02:08        0.93
  WS02004407           JUNCTION     0.15     0.28     6.59     0  02:09        0.28
  WS02004409           JUNCTION     0.34     0.63     6.40     0  02:09        0.63
  WS02004410           JUNCTION     0.37     0.65     6.37     0  02:12        0.65
  WS02004411           JUNCTION     0.39     0.66     6.34     0  02:09        0.66
  WS02004412           JUNCTION     0.41     0.67     6.31     0  02:12        0.67
  WS02004413           JUNCTION     0.56     0.83     6.30     0  02:10        0.83
  WS02006109           JUNCTION     0.62     0.93     7.55     0  01:52        0.92
  WS02006110           JUNCTION     0.62     0.89     7.47     0  02:06        0.89
  WS02006111           JUNCTION     0.16     0.27     6.98     0  01:53        0.27
  WS02006112           JUNCTION     0.71     1.00     6.88     0  02:07        1.00
  WS02006113           JUNCTION     0.25     0.43     7.33     0  01:52        0.43
  WS02006115           JUNCTION     0.44     0.71     6.85     0  02:07        0.71
  WS02006116           JUNCTION     0.52     0.79     6.83     0  02:07        0.79
  WS02006228           JUNCTION     0.61     0.96     7.61     0  02:06        0.96
  WS02006229           JUNCTION     0.59     0.96     7.65     0  01:52        0.94
  WS02006230           JUNCTION     0.59     1.02     7.77     0  01:52        1.02
  WS02006231           JUNCTION     0.38     1.40     8.52     0  02:10        0.86
  WS02006232           JUNCTION     0.51     1.91     8.95     0  02:09        1.91
  WS02006234           JUNCTION     0.44     1.96     9.12     0  01:52        1.96
  WS02006235           JUNCTION     0.48     2.00     9.16     0  01:55        2.00
  WS02006238           JUNCTION     0.51     2.15     9.29     0  01:55        2.15
  WS02006239           JUNCTION     0.48     2.03     9.24     0  01:57        2.03
  WS02006240           JUNCTION     0.46     2.10     9.39     0  02:06        2.10
  WS02006242           JUNCTION     0.53     1.55     8.82     0  01:47        1.55
  WS02006243           JUNCTION     0.47     1.48     8.90     0  01:57        1.48
  WS02006245           JUNCTION     0.48     1.56     9.04     0  01:55        1.56
  WS02006247           JUNCTION     0.50     1.47     8.97     0  01:55        1.47
  WS02006248           JUNCTION     0.47     1.10     8.69     0  01:46        1.10
  WS02006249           JUNCTION     0.50     1.09     8.69     0  01:46        1.09
  WS02006251           JUNCTION     0.50     1.21     8.88     0  01:52        1.17
  WS02006252           JUNCTION     0.32     1.50     9.74     0  00:00        0.73
  WS02006256           JUNCTION     0.84     2.35     9.28     0  00:00        2.35
  WSF200               JUNCTION     0.14     0.28     5.51     0  02:10        0.28
  YS02001580           JUNCTION     0.18     1.05     9.59     0  01:44        1.04
  YS02001583           JUNCTION     0.21     1.14     9.64     0  01:44        0.82
  YS02001586           JUNCTION     0.33     1.13     9.30     0  01:43        1.13
  YS02001590           JUNCTION     0.44     1.40     9.26     0  01:43        1.37
  YS02001593           JUNCTION     0.38     1.41     9.27     0  01:43        1.28
  YS02001596           JUNCTION     0.51     1.80     9.22     0  01:55        1.80
  YS02001600           JUNCTION     0.61     1.87     9.00     0  01:43        1.87
  YS02001601           JUNCTION     0.79     2.06     8.90     0  01:43        2.06
  YS02001602           JUNCTION     0.68     1.87     8.77     0  01:43        1.87
  YS02001605           JUNCTION     0.63     1.78     8.68     0  01:43        1.78
  YS02001607           JUNCTION     0.58     1.68     8.53     0  01:43        1.68
  YS02001610           JUNCTION     0.62     1.68     8.48     0  01:43        1.68
  YS02001613           JUNCTION     0.58     1.70     8.54     0  01:55        1.70
  YS02001616           JUNCTION     0.52     1.61     8.52     0  01:43        1.61
  YS02001619           JUNCTION     0.50     1.61     8.54     0  01:43        1.61
  YS02001622           JUNCTION     0.48     1.62     8.52     0  01:43        1.57
  YS02001625           JUNCTION     0.71     1.78     8.38     0  01:44        1.78
  YS02001629           JUNCTION     0.62     1.85     8.40     0  01:44        1.85
  YS02001633           JUNCTION     0.69     2.08     8.53     0  01:45        2.05
  YS02001641           JUNCTION     0.64     1.99     8.43     0  01:55        1.94
  YS02001644           JUNCTION     0.62     1.92     8.35     0  01:47        1.92
  YS02001647           JUNCTION     0.40     1.80     8.41     0  01:47        1.77
  YS02001649           JUNCTION     0.44     2.05     8.44     0  01:47        2.04
  YS02001652           JUNCTION     0.32     2.16     8.76     0  01:47        1.95
  YS02001655           JUNCTION     0.24     2.20     9.05     0  01:47        1.83
  YS02001658           JUNCTION     0.18     2.30     9.44     0  01:47        1.63
  YS02001661           JUNCTION     0.19     2.39     9.79     0  01:48        1.45
  YS02001664           JUNCTION     0.09     2.19    10.12     0  01:48        0.97
  YS02001745           JUNCTION     0.10     2.35     9.87     0  01:47        0.90
  YS02001748           JUNCTION     0.15     2.27     9.35     0  01:47        1.31
  YS02001751           JUNCTION     0.19     2.20     9.08     0  01:47        2.20
  YS02001754           JUNCTION     0.26     2.20     8.81     0  01:47        1.72
  YS02001757           JUNCTION     0.44     2.21     8.47     0  01:47        2.06
  YS02001759           JUNCTION     0.38     2.20     8.56     0  01:47        2.06
  YS02001762           JUNCTION     0.37     2.15     8.55     0  01:47        2.15
  YS02001765           JUNCTION     0.35     2.10     8.55     0  01:46        2.10
  YS02001767           JUNCTION     0.35     2.03     8.52     0  01:46        1.95
  YS02001770           JUNCTION     0.36     1.95     8.44     0  01:46        1.95
  YS02001774           JUNCTION     0.42     2.03     8.45     0  01:46        2.00
  YS02001779           JUNCTION     0.25     1.68     8.37     0  01:46        1.68
  YS02001783           JUNCTION     0.36     2.40     8.54     0  01:55        2.40
  YS02001784           JUNCTION     0.36     1.62     7.69     0  01:55        1.25
  YS02001786           JUNCTION     0.30     1.02     7.05     0  01:46        1.02
  YS02001788           JUNCTION     0.22     0.63     6.60     0  01:48        0.62
  YS02001790           JUNCTION     0.26     0.73     6.37     0  01:50        0.72
  YS02001791           JUNCTION     0.16     0.44     5.91     0  01:48        0.44
  YS02001793           JUNCTION     0.08     0.25     5.08     0  01:48        0.23
  YS02001882           JUNCTION     0.45     1.83     8.55     0  01:45        1.83
  YS02001884           JUNCTION     0.53     1.92     8.54     0  01:45        1.92
  YS02001887           JUNCTION     0.61     1.93     8.47     0  01:45        1.93
  YS02001890           JUNCTION     0.63     1.81     8.32     0  01:44        1.81
  YS02001895           JUNCTION     0.42     1.71     8.45     0  01:55        1.57
  YS02001898           JUNCTION     0.42     1.77     8.51     0  01:55        1.57
  YS02001901           JUNCTION     0.53     1.87     8.48     0  01:55        1.68
  YS02001904           JUNCTION     0.51     1.77     8.40     0  01:55        1.65
  YS02001907           JUNCTION     0.81     1.96     8.25     0  01:45        1.96
  YS02001910           JUNCTION     0.63     2.02     8.52     0  01:48        1.96
  YS02001915           JUNCTION     0.46     2.00     8.72     0  01:48        1.92
  YS02001918           JUNCTION     0.29     1.81     8.88     0  01:46        1.67
  YS02001920           JUNCTION     0.37     2.14     9.15     0  01:46        1.76
  YS02001923           JUNCTION     0.23     2.03     9.29     0  01:46        1.54
  YS02001926           JUNCTION     0.25     1.90     9.35     0  01:46        1.39
  YS02001929           JUNCTION     0.15     1.78     9.47     0  01:46        1.17
  YS02006553           JUNCTION     0.81     2.19     8.47     0  01:55        2.19
  YS02006556           JUNCTION     0.78     2.39     8.70     0  01:55        2.39
  YS02006558           JUNCTION     0.82     2.50     8.77     0  01:55        2.50
  YS02006561           JUNCTION     0.23     1.21     7.87     0  01:45        1.05
  YS02163301           JUNCTION     0.64     2.03     8.55     0  01:55        2.03
  YS02163601           JUNCTION     0.71     2.08     8.48     0  01:45        2.06
  YS02164001           JUNCTION     0.63     2.10     8.56     0  01:55        2.10
  CC-1                 OUTFALL      0.00     0.00     0.00     0  00:00        0.00
  CC-2                 OUTFALL      0.00     0.00     0.00     0  00:00        0.00
  JK-1                 OUTFALL      0.00     0.00     0.00     0  00:00        0.00
  JK-2                 OUTFALL      0.00     0.00     0.00     0  00:00        0.00
  WSC                  OUTFALL      0.16     0.28     0.95     0  02:16        0.28
  CC-storage           STORAGE      0.40     1.06     6.56     0  02:27        1.06
  JK-storage           STORAGE      0.11     2.99     3.79     0  00:00        0.68
  
  
  *******************
  Node Inflow Summary
  *******************
  
  -------------------------------------------------------------------------------------------------
                                  Maximum  Maximum                  Lateral       Total        Flow
                                  Lateral    Total  Time of Max      Inflow      Inflow     Balance
                                   Inflow   Inflow   Occurrence      Volume      Volume       Error
  Node                 Type           LPS      LPS  days hr:min    10^6 ltr    10^6 ltr     Percent
  -------------------------------------------------------------------------------------------------
  WS02003060           JUNCTION     16.53   503.21     0  02:11       0.471        3.97       0.045
  WS02003066           JUNCTION      0.00   486.48     0  02:10           0         3.5       0.038
  WS02003067           JUNCTION      0.00   486.37     0  02:10           0        3.51       0.113
  WS02003069           JUNCTION      0.32   503.46     0  02:11     0.00912        3.98       0.089
  WS02003072           JUNCTION      0.00   503.08     0  02:12           0        3.98       0.167
  WS02003073           JUNCTION      1.82   504.59     0  02:12      0.0519        4.02       0.122
  WS02004401           JUNCTION      0.00   489.51     0  02:07           0        3.61       0.278
  WS02004402           JUNCTION      0.00   489.16     0  02:08           0         3.6       0.282
  WS02004403           JUNCTION      0.00   488.73     0  02:08           0        3.59       0.277
  WS02004404           JUNCTION      0.16   488.65     0  02:08     0.00462        3.58       0.237
  WS02004405           JUNCTION      0.04   488.49     0  02:08     0.00109        3.57       0.336
  WS02004406           JUNCTION      0.00   488.28     0  02:08           0        3.56       0.581
  WS02004407           JUNCTION      0.00   488.16     0  02:08           0        3.54       0.023
  WS02004409           JUNCTION      0.00   487.95     0  02:09           0        3.54       0.062
  WS02004410           JUNCTION      0.00   487.64     0  02:09           0        3.54       0.115
  WS02004411           JUNCTION      0.00   487.40     0  02:09           0        3.53       0.147
  WS02004412           JUNCTION      0.00   487.14     0  02:10           0        3.53       0.198
  WS02004413           JUNCTION      0.00   486.82     0  02:10           0        3.52       0.373
  WS02006109           JUNCTION      1.23   494.64     0  02:06      0.0351        3.65       0.212
  WS02006110           JUNCTION      0.00   494.52     0  02:06           0        3.64       0.173
  WS02006111           JUNCTION      0.00   508.54     0  01:53           0        3.63       0.029
  WS02006112           JUNCTION      0.00   492.93     0  01:53           0        3.63       0.555
  WS02006113           JUNCTION      0.00   492.11     0  01:52           0        3.63       0.036
  WS02006115           JUNCTION      0.00   490.38     0  02:07           0        3.61       0.187
  WS02006116           JUNCTION      0.00   490.12     0  02:07           0        3.61       0.010
  WS02006228           JUNCTION      0.00   493.26     0  02:06           0        3.62       0.060
  WS02006229           JUNCTION      0.00   492.52     0  02:06           0        3.62       0.144
  WS02006230           JUNCTION     10.28   542.56     0  01:57       0.293        3.63       0.132
  WS02006231           JUNCTION      0.00   562.95     0  03:09           0        3.33      -0.052
  WS02006232           JUNCTION      0.00   554.78     0  03:09           0        3.34       0.258
  WS02006234           JUNCTION      0.00   544.41     0  01:47           0        3.33      -0.434
  WS02006235           JUNCTION      0.00   561.28     0  01:42           0        3.37      -0.054
  WS02006238           JUNCTION      0.00   428.78     0  03:09           0        3.05      -0.096
  WS02006239           JUNCTION      0.00   428.51     0  03:09           0        3.01      -0.200
  WS02006240           JUNCTION      0.00   428.00     0  03:09           0        2.99      -0.148
  WS02006242           JUNCTION      0.00   429.02     0  03:09           0        2.99      -0.033
  WS02006243           JUNCTION      0.00   429.43     0  03:09           0        2.99       0.071
  WS02006245           JUNCTION      0.00   429.89     0  03:09           0           3       0.455
  WS02006247           JUNCTION      0.00   429.77     0  03:09           0           3       0.007
  WS02006248           JUNCTION      0.00   429.92     0  03:09           0        3.01       0.120
  WS02006249           JUNCTION      0.00   478.95     0  01:37           0        3.03       0.334
  WS02006251           JUNCTION      0.08   403.96     0  01:36     0.00219        3.03      -0.029
  WS02006252           JUNCTION      0.00   400.00     0  00:00           0        3.03      -0.046
  WS02006256           JUNCTION      0.00   314.44     0  01:53           0       0.592     -11.512
  WSF200               JUNCTION      0.00   486.45     0  02:10           0         3.5       0.009
  YS02001580           JUNCTION      0.00   134.54     0  01:43           0     0.00443       1.580
  YS02001583           JUNCTION      0.00   219.83     0  01:44           0       0.015      -8.666
  YS02001586           JUNCTION    847.09   847.11     0  01:53        1.93        1.94       0.079
  YS02001590           JUNCTION      0.00   335.67     0  01:55           0        1.41      -0.034
  YS02001593           JUNCTION      0.00   320.08     0  01:55           0        1.41       0.021
  YS02001596           JUNCTION      0.00   317.99     0  01:55           0        1.41       0.004
  YS02001600           JUNCTION      0.00   318.26     0  01:55           0        1.41       0.019
  YS02001601           JUNCTION   1567.79  1885.35     0  01:51        2.64        4.04       0.023
  YS02001602           JUNCTION      0.00   552.50     0  01:43           0        2.38       0.024
  YS02001605           JUNCTION      0.00   553.00     0  01:43           0        2.28       0.033
  YS02001607           JUNCTION      0.00   553.43     0  01:43           0        2.27       0.089
  YS02001610           JUNCTION      0.00   850.99     0  01:52           0        2.64       0.094
  YS02001613           JUNCTION      0.00   552.04     0  01:43           0        2.15       0.087
  YS02001616           JUNCTION      0.00   563.12     0  01:43           0        2.15       0.020
  YS02001619           JUNCTION   1511.84  1511.84     0  01:52        3.09        4.88      -0.001
  YS02001622           JUNCTION      0.00  1004.40     0  01:51           0        4.51       0.000
  YS02001625           JUNCTION      0.00  1402.68     0  01:54           0        4.73       0.193
  YS02001629           JUNCTION      0.00   969.98     0  02:14           0        3.88       0.016
  YS02001633           JUNCTION   1177.50  1438.55     0  01:45        1.93        5.48       0.066
  YS02001641           JUNCTION      0.00  1437.12     0  01:45           0        5.17       0.061
  YS02001644           JUNCTION   1057.26  1905.43     0  01:45        1.67        6.84       0.049
  YS02001647           JUNCTION      0.00  1905.62     0  01:45           0        6.25       0.010
  YS02001649           JUNCTION      0.00  2200.92     0  01:45           0        7.78       0.007
  YS02001652           JUNCTION      0.00  1051.27     0  01:50           0        1.53      -0.068
  YS02001655           JUNCTION      0.15  1051.39     0  01:50     0.00439        1.54       0.079
  YS02001658           JUNCTION      0.00  1051.16     0  01:50           0        1.53      -0.066
  YS02001661           JUNCTION      0.00  1050.02     0  01:50           0        1.53       0.043
  YS02001664           JUNCTION   1035.80  1035.80     0  01:50        1.53        1.53      -0.034
  YS02001745           JUNCTION    677.23   768.64     0  01:47       0.923       0.925       0.098
  YS02001748           JUNCTION      0.04   691.47     0  01:49     0.00128       0.929      -0.281
  YS02001751           JUNCTION      0.01   691.86     0  01:49    0.000313       0.937       0.053
  YS02001754           JUNCTION      0.26   692.05     0  01:49     0.00741       0.951      -0.150
  YS02001757           JUNCTION      0.00  3459.45     0  01:55           0        11.6       0.058
  YS02001759           JUNCTION    938.12  1564.37     0  01:47        1.28        2.93       0.003
  YS02001762           JUNCTION      0.00   872.72     0  01:47           0        1.65       0.002
  YS02001765           JUNCTION      0.00   872.17     0  01:47           0        1.65       0.005
  YS02001767           JUNCTION      0.54   872.76     0  01:47      0.0152        1.65       0.003
  YS02001770           JUNCTION   1302.76  1302.76     0  01:51        1.94        1.98      -0.013
  YS02001774           JUNCTION      0.00   792.95     0  01:50           0       0.359       0.303
  YS02001779           JUNCTION      0.01   792.24     0  01:50    0.000142       0.317      -0.159
  YS02001783           JUNCTION      0.00  1170.92     0  01:48           0        4.21       0.006
  YS02001784           JUNCTION      1.06  1171.74     0  01:48      0.0302        4.24       0.015
  YS02001786           JUNCTION      0.06  1171.72     0  01:48      0.0016        4.24       0.014
  YS02001788           JUNCTION      0.07  1173.64     0  01:48     0.00202        4.24       0.007
  YS02001790           JUNCTION      0.15  1184.91     0  01:48     0.00442        4.24       0.003
  YS02001791           JUNCTION      0.00  1292.46     0  01:50           0        4.24      -0.005
  YS02001793           JUNCTION      0.00  1262.39     0  01:48           0        4.24      -0.043
  YS02001882           JUNCTION      0.00    60.33     0  01:44           0      0.0134       4.936
  YS02001884           JUNCTION      0.00   116.54     0  01:44           0      0.0494       5.623
  YS02001887           JUNCTION   1021.57  1021.60     0  01:50        1.33        1.36       0.332
  YS02001890           JUNCTION      0.00  1021.94     0  01:50           0        1.32       0.397
  YS02001895           JUNCTION      0.00   595.53     0  01:55           0        1.13       0.155
  YS02001898           JUNCTION      0.00   582.14     0  01:55           0        1.13       0.047
  YS02001901           JUNCTION      0.00   535.21     0  01:45           0        1.13       0.299
  YS02001904           JUNCTION      0.00   536.98     0  01:45           0        1.14       0.247
  YS02001907           JUNCTION      0.00  2379.34     0  01:50           0        4.06       0.446
  YS02001910           JUNCTION      0.00  1688.17     0  01:51           0         2.9       0.251
  YS02001915           JUNCTION   1143.17  1687.97     0  01:51        1.85        2.95       0.059
  YS02001918           JUNCTION      0.00   556.39     0  01:52           0        1.14       0.020
  YS02001920           JUNCTION      2.87   556.42     0  01:52      0.0818        1.11       0.090
  YS02001923           JUNCTION      0.04   597.35     0  01:45     0.00107        1.02      -0.040
  YS02001926           JUNCTION      0.05   926.50     0  01:46     0.00149       0.995      -0.111
  YS02001929           JUNCTION    547.41   778.87     0  01:46       0.973       0.978      -0.086
  YS02006553           JUNCTION      0.00   796.46     0  02:10           0        2.38       0.505
  YS02006556           JUNCTION      0.00   796.39     0  02:10           0        2.39       0.335
  YS02006558           JUNCTION   1343.56  1343.56     0  01:50        1.95        4.28       0.080
  YS02006561           JUNCTION      0.00  1171.36     0  01:48           0        4.21       0.001
  YS02163301           JUNCTION      0.00   972.44     0  02:14           0        3.86       0.045
  YS02163601           JUNCTION      0.11  1438.37     0  01:45     0.00313        5.17       0.100
  YS02164001           JUNCTION      0.00  1437.58     0  01:45           0        5.16       0.049
  CC-1                 OUTFALL       0.00   683.00     0  00:00           0        5.17       0.000
  CC-2                 OUTFALL       0.00   683.00     0  00:00           0        5.17       0.000
  JK-1                 OUTFALL       0.00  1000.00     0  00:00           0        1.94       0.000
  JK-2                 OUTFALL       0.00  1000.00     0  00:00           0        1.94       0.000
  WSC                  OUTFALL       0.00   504.45     0  02:16           0        4.02       0.000
  CC-storage           STORAGE       0.00  3454.63     0  01:55           0        13.9      -0.310
  JK-storage           STORAGE       0.00  1410.77     0  01:48           0         4.4      -1.741
  
  
  **********************
  Node Surcharge Summary
  **********************
  
  Surcharging occurs when water rises above the top of the highest conduit.
  ---------------------------------------------------------------------
                                               Max. Height   Min. Depth
                                   Hours       Above Crown    Below Rim
  Node                 Type      Surcharged         Meters       Meters
  ---------------------------------------------------------------------
  WS02006109           JUNCTION        1.68          0.108        1.712
  WS02006228           JUNCTION        1.66          0.130        2.070
  WS02006229           JUNCTION        1.69          0.156        2.294
  WS02006231           JUNCTION        0.11          0.689        0.841
  WS02006232           JUNCTION        1.77          1.214        0.266
  WS02006234           JUNCTION        0.81          1.240        0.000
  WS02006235           JUNCTION        1.53          1.290        0.000
  WS02006238           JUNCTION        1.73          1.430        0.000
  WS02006239           JUNCTION        1.65          1.290        0.000
  WS02006240           JUNCTION        1.69          1.390        0.000
  WS02006242           JUNCTION        1.81          0.820        0.000
  WS02006243           JUNCTION        1.72          0.770        0.000
  WS02006245           JUNCTION        1.71          0.850        0.000
  WS02006247           JUNCTION        1.73          0.760        0.000
  WS02006248           JUNCTION        1.70          0.380        0.000
  WS02006249           JUNCTION        1.72          0.390        0.000
  WS02006251           JUNCTION        0.51          0.178        1.002
  WS02006252           JUNCTION        2.10          1.100        0.000
  WS02006256           JUNCTION        4.31          2.050        0.000
  YS02001580           JUNCTION        0.69          0.450        0.000
  YS02001583           JUNCTION        0.69          0.500        0.000
  YS02001586           JUNCTION        0.79          0.510        0.000
  YS02001590           JUNCTION        0.86          0.750        0.000
  YS02001593           JUNCTION        0.86          0.789        0.051
  YS02001596           JUNCTION        0.97          1.070        0.000
  YS02001600           JUNCTION        1.14          1.190        0.000
  YS02001601           JUNCTION        1.52          1.440        0.000
  YS02001602           JUNCTION        1.43          1.270        0.000
  YS02001605           JUNCTION        1.37          1.180        0.000
  YS02001607           JUNCTION        0.78          0.680        0.000
  YS02001610           JUNCTION        0.81          0.680        0.000
  YS02001613           JUNCTION        0.77          0.700        0.000
  YS02001616           JUNCTION        0.73          0.610        0.000
  YS02001619           JUNCTION        0.71          0.610        0.000
  YS02001622           JUNCTION        0.70          0.620        0.000
  YS02001625           JUNCTION        0.91          0.780        0.000
  YS02001629           JUNCTION        0.58          0.470        0.000
  YS02001633           JUNCTION        0.91          1.060        0.000
  YS02001641           JUNCTION        0.79          0.991        0.109
  YS02001644           JUNCTION        0.72          0.920        0.000
  YS02001647           JUNCTION        0.46          0.801        0.099
  YS02001649           JUNCTION        0.50          1.050        0.000
  YS02001652           JUNCTION        0.37          1.130        0.000
  YS02001655           JUNCTION        0.28          1.200        0.000
  YS02001658           JUNCTION        0.20          1.300        0.000
  YS02001661           JUNCTION        0.09          1.321        0.069
  YS02001664           JUNCTION        0.01          1.193        0.117
  YS02001745           JUNCTION        0.01          1.350        0.000
  YS02001748           JUNCTION        0.13          1.190        0.000
  YS02001751           JUNCTION        0.22          1.200        0.000
  YS02001754           JUNCTION        0.28          1.150        0.000
  YS02001757           JUNCTION        0.49          1.210        0.000
  YS02001759           JUNCTION        0.43          1.198        0.012
  YS02001762           JUNCTION        0.41          1.150        0.000
  YS02001765           JUNCTION        0.39          1.100        0.000
  YS02001767           JUNCTION        0.37          1.030        0.000
  YS02001770           JUNCTION        0.36          0.920        0.000
  YS02001774           JUNCTION        0.41          1.029        0.021
  YS02001779           JUNCTION        0.30          0.680        0.000
  YS02001783           JUNCTION        0.60          1.600        0.000
  YS02001784           JUNCTION        0.57          0.820        0.670
  YS02001786           JUNCTION        0.47          0.217        1.213
  YS02001882           JUNCTION        0.54          0.830        0.000
  YS02001884           JUNCTION        0.55          0.864        0.006
  YS02001887           JUNCTION        0.58          0.878        0.072
  YS02001890           JUNCTION        0.60          0.760        0.000
  YS02001895           JUNCTION        0.53          0.707        0.043
  YS02001898           JUNCTION        0.52          0.740        0.000
  YS02001901           JUNCTION        0.57          0.870        0.000
  YS02001904           JUNCTION        0.56          0.772        0.078
  YS02001907           JUNCTION        0.80          0.950        0.000
  YS02001910           JUNCTION        0.63          1.018        0.082
  YS02001915           JUNCTION        0.54          1.000        0.000
  YS02001918           JUNCTION        0.46          0.810        0.000
  YS02001920           JUNCTION        0.47          1.140        0.000
  YS02001923           JUNCTION        0.16          0.820        0.000
  YS02001926           JUNCTION        0.19          0.900        0.000
  YS02001929           JUNCTION        0.02          0.780        0.000
  YS02006553           JUNCTION        0.82          1.190        0.000
  YS02006556           JUNCTION        0.71          1.350        0.000
  YS02006558           JUNCTION        0.70          1.400        0.000
  YS02006561           JUNCTION        0.42          0.412        0.738
  YS02163301           JUNCTION        0.90          1.030        0.000
  YS02163601           JUNCTION        0.94          1.080        0.000
  YS02164001           JUNCTION        0.81          1.100        0.000
  
  
  *********************
  Node Flooding Summary
  *********************
  
  Flooding refers to all water that overflows a node, whether it ponds or not.
  --------------------------------------------------------------------------
                                                             Total   Maximum
                                 Maximum   Time of Max       Flood    Ponded
                        Hours       Rate    Occurrence      Volume     Depth
  Node                 Flooded       LPS   days hr:min    10^6 ltr    Meters
  --------------------------------------------------------------------------
  WS02006234              0.01     86.53      0  01:52       0.000     0.000
  WS02006235              0.01     29.26      0  03:09       0.000     0.000
  WS02006238              0.01     26.58      0  03:09       0.000     0.000
  WS02006239              0.01     11.29      0  01:57       0.000     0.000
  WS02006240              0.01     13.53      0  02:06       0.000     0.000
  WS02006242              0.02     36.42      0  02:06       0.001     0.000
  WS02006243              0.01      6.85      0  02:06       0.000     0.000
  WS02006245              0.01      4.42      0  02:09       0.000     0.000
  WS02006247              0.01      4.15      0  02:09       0.000     0.000
  WS02006248              0.16     24.89      0  01:51       0.007     0.000
  WS02006249              0.22     19.96      0  01:48       0.005     0.000
  WS02006252              0.01    245.63      0  00:00       0.000     0.000
  WS02006256              0.55    303.22      0  01:53       0.342     0.000
  YS02001580              0.01     88.27      0  01:44       0.000     0.000
  YS02001583              0.01    191.61      0  01:44       0.000     0.000
  YS02001586              0.57    529.62      0  01:53       0.519     0.000
  YS02001590              0.01     16.05      0  01:55       0.000     0.000
  YS02001596              0.01      0.27      0  01:55       0.000     0.000
  YS02001600              0.01      2.34      0  01:55       0.000     0.000
  YS02001601              0.70   1487.40      0  01:51       1.659     0.000
  YS02001602              0.52     61.95      0  01:55       0.107     0.000
  YS02001605              0.01      9.44      0  01:55       0.000     0.000
  YS02001607              0.01     11.08      0  01:43       0.000     0.000
  YS02001610              0.47    850.84      0  01:52       0.846     0.000
  YS02001613              0.01      0.83      0  01:55       0.000     0.000
  YS02001616              0.01     36.86      0  01:43       0.000     0.000
  YS02001619              0.01     40.95      0  01:43       0.000     0.000
  YS02001622              0.01    249.96      0  01:43       0.000     0.000
  YS02001625              0.39   1402.67      0  01:54       1.151     0.000
  YS02001629              0.15    396.87      0  01:49       0.113     0.000
  YS02001633              0.01      5.30      0  01:45       0.000     0.000
  YS02001644              0.19   1418.44      0  01:50       0.577     0.000
  YS02001649              0.01    255.62      0  01:48       0.005     0.000
  YS02001652              0.01     37.38      0  01:47       0.000     0.000
  YS02001655              0.01     73.93      0  01:48       0.000     0.000
  YS02001658              0.01    501.45      0  01:47       0.001     0.000
  YS02001745              0.01    191.87      0  01:47       0.000     0.000
  YS02001748              0.01    561.08      0  01:47       0.001     0.000
  YS02001751              0.01     59.46      0  01:47       0.000     0.000
  YS02001754              0.01     65.05      0  01:47       0.000     0.000
  YS02001757              0.01     40.79      0  01:47       0.000     0.000
  YS02001762              0.01      3.64      0  01:47       0.000     0.000
  YS02001765              0.01      5.89      0  01:46       0.000     0.000
  YS02001767              0.01     35.97      0  01:46       0.000     0.000
  YS02001770              0.04    280.59      0  01:46       0.006     0.000
  YS02001779              0.18    792.11      0  01:50       0.300     0.000
  YS02001783              0.01     26.43      0  01:55       0.000     0.000
  YS02001882              0.01     19.67      0  01:45       0.000     0.000
  YS02001890              0.20    506.77      0  01:50       0.186     0.000
  YS02001898              0.01     33.29      0  01:55       0.000     0.000
  YS02001901              0.01     12.84      0  01:55       0.000     0.000
  YS02001907              0.40   2379.28      0  01:50       1.712     0.000
  YS02001915              0.01      4.36      0  01:48       0.000     0.000
  YS02001918              0.01    206.24      0  01:46       0.003     0.000
  YS02001920              0.01     56.10      0  01:46       0.000     0.000
  YS02001923              0.01    136.34      0  01:46       0.000     0.000
  YS02001926              0.01    560.21      0  01:46       0.004     0.000
  YS02001929              0.01    581.07      0  01:46       0.001     0.000
  YS02006553              0.01      0.12      0  01:55       0.000     0.000
  YS02006556              0.01      0.52      0  01:55       0.000     0.000
  YS02006558              0.01     41.72      0  01:55       0.000     0.000
  YS02163301              0.01      0.74      0  01:55       0.000     0.000
  YS02163601              0.01     22.45      0  01:55       0.000     0.000
  YS02164001              0.01      0.57      0  01:55       0.000     0.000
  
  
  **********************
  Storage Volume Summary
  **********************
  
  ------------------------------------------------------------------------------------------------
                         Average    Avg   Evap  Exfil     Maximum    Max    Time of Max    Maximum
                          Volume   Pcnt   Pcnt   Pcnt      Volume   Pcnt     Occurrence    Outflow
  Storage Unit           1000 m³   Full   Loss   Loss     1000 m³   Full    days hr:min        LPS
  ------------------------------------------------------------------------------------------------
  CC-storage               1.127   17.6    0.0    0.0       2.958   46.1       0  02:27    1783.53
  JK-storage               0.006    1.9    0.0    0.0       0.150   51.6       0  00:00    2300.00
  
  
  ***********************
  Outfall Loading Summary
  ***********************
  
  -----------------------------------------------------------
                         Flow       Avg       Max       Total
                         Freq      Flow      Flow      Volume
  Outfall Node           Pcnt       LPS       LPS    10^6 ltr
  -----------------------------------------------------------
  CC-1                  51.51    683.00    683.00       5.165
  CC-2                  51.51    683.00    683.00       5.165
  JK-1                  14.75   1000.00   1000.00       1.942
  JK-2                  14.75   1000.00   1000.00       1.942
  WSC                   99.93    213.02    504.45       4.017
  -----------------------------------------------------------
  System                46.49   3579.02   3870.45      18.232
  
  
  ********************
  Link Flow Summary
  ********************
  
  -----------------------------------------------------------------------------
                                 Maximum  Time of Max   Maximum    Max/    Max/
                                  |Flow|   Occurrence   |Veloc|    Full    Full
  Link                 Type          LPS  days hr:min     m/sec    Flow   Depth
  -----------------------------------------------------------------------------
  1                    CONDUIT    504.45     0  02:16      2.75    0.18    0.28
  WS02003060WS02003069 CONDUIT    503.14     0  02:11      1.60    0.20    0.32
  WS02003066WSF200     CONDUIT    486.45     0  02:10      2.78    0.08    0.21
  WS02003067WS02003066 CONDUIT    486.48     0  02:10      1.14    0.16    0.40
  WS02003069WS02003072 CONDUIT    503.08     0  02:12      1.33    0.24    0.37
  WS02003072WS02003073 CONDUIT    502.77     0  02:12      1.39    1.09    0.36
  WS02004401WS02004402 CONDUIT    489.16     0  02:08      1.22    0.59    0.83
  WS02004402WS02004403 CONDUIT    488.73     0  02:08      1.24    0.70    0.85
  WS02004403WS02004404 CONDUIT    488.48     0  02:08      1.24    0.35    0.89
  WS02004404WS02004405 CONDUIT    488.46     0  02:08      1.45    4.79    0.93
  WS02004405WS02004406 CONDUIT    488.28     0  02:08      1.46    0.96    0.93
  WS02004406WS02004407 CONDUIT    488.16     0  02:08      0.98    0.22    0.61
  WS02004407WS02004409 CONDUIT    487.95     0  02:09      1.59    0.17    0.46
  WS02004409WS02004410 CONDUIT    487.64     0  02:09      1.06    0.63    0.64
  WS02004410WS02004411 CONDUIT    487.40     0  02:09      1.13    0.67    0.65
  WS02004411WS02004412 CONDUIT    487.14     0  02:10      1.20    0.69    0.66
  WS02004412WS02004413 CONDUIT    486.82     0  02:10      1.22    0.33    0.75
  WS02004413WS02003067 CONDUIT    486.37     0  02:10      1.05    0.21    0.57
  WS02006109WS02006110 CONDUIT    494.52     0  02:06      0.99    0.95    0.99
  WS02006110WS02006113 CONDUIT    492.11     0  01:52      1.19    0.45    0.77
  WS02006111WS02006112 CONDUIT    492.93     0  01:53      1.95    0.23    0.66
  WS02006112WS02006115 CONDUIT    490.38     0  02:07      0.82    0.29    0.85
  WS02006113WS02006111 CONDUIT    508.54     0  01:53      2.38    0.61    0.44
  WS02006115WS02006116 CONDUIT    490.12     0  02:07      1.29    0.63    0.72
  WS02006116WS02004401 CONDUIT    489.51     0  02:07      1.21    0.67    0.80
  WS02006228WS02006109 CONDUIT    493.41     0  02:06      1.06    2.16    1.00
  WS02006229WS02006228 CONDUIT    493.26     0  02:06      1.12    1.63    1.00
  WS02006230WS02006229 CONDUIT    492.52     0  02:06      1.28   10.96    1.00
  WS02006231WS02006230 CONDUIT    532.28     0  01:57      1.44    8.07    0.95
  WS02006232WS02006231 CONDUIT    562.95     0  03:09      1.49    1.18    1.00
  WS02006234WS02006232 CONDUIT    554.78     0  03:09      1.44    1.12    1.00
  WS02006235WS02006234 CONDUIT    544.41     0  01:47      1.42    5.74    1.00
  WS02006238WS02006235 CONDUIT    457.78     0  03:09      1.45    1.02    1.00
  WS02006239WS02006238 CONDUIT    428.78     0  03:09      1.11    1.37    1.00
  WS02006240WS02006239 CONDUIT    428.51     0  03:09      1.25    1.35    1.00
  WS02006242WS02006240 CONDUIT    428.00     0  03:09      1.16    1.70    1.00
  WS02006243WS02006242 CONDUIT    429.02     0  03:09      1.42    0.92    1.00
  WS02006245WS02006243 CONDUIT    429.43     0  03:09      1.45    1.27    1.00
  WS02006247WS02006245 CONDUIT    429.89     0  03:09      1.43    3.41    1.00
  WS02006248WS02006247 CONDUIT    429.77     0  03:09      1.44    0.94    1.00
  WS02006249WS02006248 CONDUIT    429.92     0  03:09      1.37    2.36    1.00
  WS02006251WS02006249 CONDUIT    478.95     0  01:37      2.01    1.38    1.00
  WS02006252WS02006251 CONDUIT    403.89     0  01:36     18.56    1.48    1.00
  WS02006256WS02006235 CONDUIT    288.91     0  00:00      4.23    3.06    1.00
  WSF200WS02003060     CONDUIT    486.68     0  02:11      2.01    0.11    0.27
  YS02001580YS02001583 CONDUIT    134.54     0  01:43      0.81    0.52    1.00
  YS02001583YS02001586 CONDUIT    181.52     0  01:44      0.83    0.27    1.00
  YS02001586YS02001590 CONDUIT    335.67     0  01:55      1.28    0.59    1.00
  YS02001590YS02001593 CONDUIT    320.08     0  01:55      1.13    2.01    1.00
  YS02001593YS02001596 CONDUIT    317.99     0  01:55      1.76    0.50    1.00
  YS02001596YS02001600 CONDUIT    318.26     0  01:55      1.23    0.62    1.00
  YS02001600YS02001601 CONDUIT    318.32     0  01:55      1.13    0.55    1.00
  YS02001601YS02001602 CONDUIT    552.50     0  01:43      1.95    2.00    1.00
  YS02001602YS02001605 CONDUIT    553.00     0  01:43      1.96   11.70    1.00
  YS02001605YS02001607 CONDUIT    553.43     0  01:43      1.96    3.03    1.00
  YS02001607YS02001610 CONDUIT    544.97     0  01:43      0.69    0.52    1.00
  YS02001610YS02001613 CONDUIT    552.04     0  01:43      0.70    0.64    1.00
  YS02001613YS02001616 CONDUIT    563.12     0  01:43      0.72    0.48    1.00
  YS02001616YS02001619 CONDUIT    529.02     0  01:43      0.68    0.92    1.00
  YS02001619YS02001622 CONDUIT   1004.40     0  01:51      1.28    1.48    1.00
  YS02001622YS02001625 CONDUIT   1004.97     0  01:51      1.28    0.54    1.00
  YS02001625YS02001629 CONDUIT    969.98     0  02:14      1.24    0.46    1.00
  YS02001629YS02163301 CONDUIT    972.44     0  02:14      1.24    1.20    1.00
  YS02001633YS02163601 CONDUIT   1438.26     0  01:45      1.83    1.51    1.00
  YS02001641YS02001644 CONDUIT   1438.09     0  01:45      1.83    4.65    1.00
  YS02001644YS02001647 CONDUIT   1905.62     0  01:45      2.44    1.12    1.00
  YS02001647YS02001649 CONDUIT   1897.77     0  01:45      2.42    1.00    1.00
  YS02001649YS02001757 CONDUIT   2201.10     0  01:45      2.80    1.34    1.00
  YS02001652YS02001649 CONDUIT   1051.48     0  01:50      1.34    0.52    1.00
  YS02001655YS02001652 CONDUIT   1051.27     0  01:50      1.41    0.51    1.00
  YS02001658YS02001655 CONDUIT   1051.24     0  01:50      1.98    0.45    1.00
  YS02001661YS02001658 CONDUIT   1051.16     0  01:50      2.43    0.41    1.00
  YS02001664YS02001661 CONDUIT   1050.02     0  01:50      2.48    0.33    1.00
  YS02001745YS02001748 CONDUIT    691.42     0  01:49      2.34    0.27    1.00
  YS02001748YS02001751 CONDUIT    691.85     0  01:49      1.82    0.35    1.00
  YS02001751YS02001754 CONDUIT    691.79     0  01:49      1.50    0.33    1.00
  YS02001754YS02001757 CONDUIT    691.92     0  01:49      0.88    0.28    1.00
  YS02001757CaochengTiaoxuchi CONDUIT   3454.63     0  01:55      6.88    1.50    0.98
  YS02001759YS02001757 CONDUIT   1564.43     0  01:47      1.99    1.11    1.00
  YS02001762YS02001759 CONDUIT    874.95     0  01:47      1.11    1.01    1.00
  YS02001765YS02001762 CONDUIT    872.72     0  01:47      1.11    0.82    1.00
  YS02001767YS02001765 CONDUIT    872.17     0  01:47      1.11    1.10    1.00
  YS02001770YS02001767 CONDUIT    872.22     0  01:47      1.11    3.45    1.00
  YS02001774YS02001770 CONDUIT    792.95     0  01:50      1.01    0.51    1.00
  YS02001779YS02001774 CONDUIT    792.23     0  01:50      1.01    0.40    1.00
  YS02001783YS02001784 CONDUIT   1170.68     0  01:48      2.33    1.61    1.00
  YS02001784YS02001785 CONDUIT   1171.66     0  01:48      2.33    2.73    1.00
  YS02001786YS02001788 CONDUIT   1173.57     0  01:48      2.49    2.26    0.89
  YS02001788YS02001790 CONDUIT   1184.76     0  01:48      2.72    0.87    0.84
  YS02001790YS02001791 CONDUIT   1292.46     0  01:50      3.42    1.41    0.71
  YS02001791YS02001793 CONDUIT   1262.39     0  01:48      6.75    0.54    0.43
  YS02001793JiankangQianchi CONDUIT   1410.77     0  01:48     15.32    0.11    0.50
  YS02001882YS02001884 CONDUIT     60.33     0  01:44      0.14    0.07    1.00
  YS02001884YS02001887 CONDUIT    116.54     0  01:44      0.15    0.16    1.00
  YS02001887YS02001890 CONDUIT   1021.94     0  01:50      1.30    1.75    1.00
  YS02001890YS02001895 CONDUIT    595.53     0  01:55      0.76    0.28    1.00
  YS02001895YS02001898 CONDUIT    582.14     0  01:55      0.74    1.01    1.00
  YS02001898YS02001901 CONDUIT    535.21     0  01:45      0.68    0.35    1.00
  YS02001901YS02001904 CONDUIT    536.98     0  01:45      0.68    0.83    1.00
  YS02001904YS02001907 CONDUIT    539.05     0  01:45      0.69    0.19    1.00
  YS02001907YS02006553 CONDUIT    796.46     0  02:10      0.88    0.94    1.00
  YS02001910YS02001907 CONDUIT   1687.69     0  01:51      2.15    0.95    1.00
  YS02001915YS02001910 CONDUIT   1688.17     0  01:51      2.15    0.84    1.00
  YS02001918YS02001915 CONDUIT    556.54     0  01:52      0.71    0.31    1.00
  YS02001920YS02001918 CONDUIT    556.39     0  01:52      0.71    0.54    1.00
  YS02001923YS02001920 CONDUIT    553.55     0  01:52      0.72    0.25    1.00
  YS02001926YS02001923 CONDUIT    698.68     0  01:46      1.14    1.00    1.00
  YS02001929YS02001926 CONDUIT    553.44     0  01:51      1.19    0.26    1.00
  YS02006553YS02006556 CONDUIT    796.39     0  02:10      1.01    0.68    1.00
  YS02006556YS02006558 CONDUIT    796.89     0  02:10      1.01    0.63    1.00
  YS02006558YS02006561 CONDUIT   1171.36     0  01:48      4.14    2.59    1.00
  YS02006561YS02001783 CONDUIT   1170.92     0  01:48      2.33    0.61    1.00
  YS02163301YS02001633 CONDUIT    973.06     0  02:14      1.24    0.91    1.00
  YS02163601YS02164001 CONDUIT   1437.58     0  01:45      1.83    1.27    1.00
  YS02164001YS02001641 CONDUIT   1437.12     0  01:45      1.83    1.96    1.00
  CC-R1                PUMP       683.00     0  00:00              1.00
  CC-R2                PUMP       683.00     0  00:00              1.00
  CC-S1                PUMP       200.00     0  00:00              1.00
  CC-S2                PUMP       200.00     0  00:00              1.00
  JK-R1                PUMP      1000.00     0  00:00              1.00
  JK-R2                PUMP      1000.00     0  00:00              1.00
  JK-S                 PUMP       300.00     0  00:00              1.00
  
  
  ***************************
  Flow Classification Summary
  ***************************
  
  -------------------------------------------------------------------------------------
                      Adjusted    ---------- Fraction of Time in Flow Class ---------- 
                       /Actual         Up    Down  Sub   Sup   Up    Down  Norm  Inlet 
  Conduit               Length    Dry  Dry   Dry   Crit  Crit  Crit  Crit  Ltd   Ctrl  
  -------------------------------------------------------------------------------------
  1                       1.00   0.00  0.00  0.00  0.00  1.00  0.00  0.00  0.65  0.00
  WS02003060WS02003069    1.00   0.00  0.00  0.00  0.98  0.02  0.00  0.00  0.77  0.00
  WS02003066WSF200        1.00   0.05  0.00  0.00  0.00  0.95  0.00  0.00  0.92  0.00
  WS02003067WS02003066    1.00   0.05  0.00  0.00  0.95  0.00  0.00  0.00  0.00  0.00
  WS02003069WS02003072    1.00   0.00  0.00  0.00  0.99  0.01  0.00  0.00  0.78  0.00
  WS02003072WS02003073    1.00   0.00  0.00  0.00  0.00  0.00  0.00  1.00  0.00  0.00
  WS02004401WS02004402    1.00   0.02  0.00  0.00  0.98  0.00  0.00  0.00  0.00  0.00
  WS02004402WS02004403    1.00   0.02  0.00  0.00  0.98  0.00  0.00  0.00  0.00  0.00
  WS02004403WS02004404    1.00   0.00  0.03  0.00  0.97  0.00  0.00  0.00  0.00  0.00
  WS02004404WS02004405    1.00   0.00  0.00  0.00  1.00  0.00  0.00  0.00  0.01  0.00
  WS02004405WS02004406    1.00   0.00  0.00  0.00  1.00  0.00  0.00  0.00  0.00  0.00
  WS02004406WS02004407    1.00   0.00  0.03  0.00  0.97  0.00  0.00  0.00  0.00  0.00
  WS02004407WS02004409    1.00   0.03  0.00  0.00  0.95  0.02  0.00  0.00  0.95  0.00
  WS02004409WS02004410    1.00   0.03  0.00  0.00  0.96  0.00  0.00  0.00  0.00  0.00
  WS02004410WS02004411    1.00   0.04  0.00  0.00  0.96  0.00  0.00  0.00  0.00  0.00
  WS02004411WS02004412    1.00   0.04  0.00  0.00  0.96  0.00  0.00  0.00  0.00  0.00
  WS02004412WS02004413    1.00   0.04  0.00  0.00  0.96  0.00  0.00  0.00  0.00  0.00
  WS02004413WS02003067    1.00   0.04  0.01  0.00  0.00  0.00  0.95  0.00  0.00  0.00
  WS02006109WS02006110    1.00   0.00  0.01  0.00  0.98  0.00  0.01  0.00  0.00  0.00
  WS02006110WS02006113    1.00   0.01  0.01  0.00  0.98  0.00  0.00  0.00  0.00  0.00
  WS02006111WS02006112    1.00   0.02  0.00  0.00  0.98  0.00  0.00  0.00  0.98  0.00
  WS02006112WS02006115    1.00   0.02  0.00  0.00  0.97  0.00  0.00  0.00  0.00  0.00
  WS02006113WS02006111    1.00   0.02  0.00  0.00  0.00  0.98  0.00  0.00  0.10  0.00
  WS02006115WS02006116    1.00   0.02  0.00  0.00  0.97  0.00  0.00  0.01  0.00  0.00
  WS02006116WS02004401    1.00   0.02  0.00  0.00  0.98  0.00  0.00  0.00  0.00  0.00
  WS02006228WS02006109    1.00   0.00  0.00  0.00  1.00  0.00  0.00  0.00  0.00  0.00
  WS02006229WS02006228    1.00   0.00  0.00  0.00  0.99  0.00  0.00  0.01  0.00  0.00
  WS02006230WS02006229    1.00   0.00  0.00  0.00  0.99  0.00  0.00  0.01  0.01  0.00
  WS02006231WS02006230    1.00   0.00  0.00  0.00  0.23  0.00  0.76  0.00  0.00  0.00
  WS02006232WS02006231    1.00   0.00  0.00  0.00  0.99  0.00  0.01  0.00  0.00  0.00
  WS02006234WS02006232    1.00   0.00  0.00  0.00  1.00  0.00  0.00  0.00  0.19  0.00
  WS02006235WS02006234    1.00   0.00  0.00  0.00  0.56  0.00  0.44  0.00  0.00  0.00
  WS02006238WS02006235    1.00   0.00  0.00  0.00  1.00  0.00  0.00  0.00  0.01  0.00
  WS02006239WS02006238    1.00   0.00  0.00  0.00  1.00  0.00  0.00  0.00  0.38  0.00
  WS02006240WS02006239    1.00   0.00  0.00  0.00  0.48  0.00  0.00  0.52  0.05  0.00
  WS02006242WS02006240    1.00   0.00  0.00  0.00  0.99  0.00  0.01  0.00  0.00  0.00
  WS02006243WS02006242    1.00   0.00  0.00  0.00  0.99  0.00  0.00  0.01  0.69  0.00
  WS02006245WS02006243    1.00   0.00  0.00  0.00  0.45  0.00  0.00  0.55  0.01  0.00
  WS02006247WS02006245    1.00   0.00  0.00  0.00  0.99  0.00  0.00  0.01  0.00  0.00
  WS02006248WS02006247    1.00   0.00  0.00  0.00  0.99  0.00  0.00  0.01  0.17  0.00
  WS02006249WS02006248    1.00   0.00  0.00  0.00  0.31  0.00  0.69  0.00  0.00  0.00
  WS02006251WS02006249    1.00   0.00  0.00  0.00  1.00  0.00  0.00  0.00  0.70  0.00
  WS02006252WS02006251    1.00   0.00  0.68  0.00  0.06  0.00  0.26  0.00  0.00  0.00
  WS02006256WS02006235    1.00   0.00  0.00  0.00  0.99  0.01  0.00  0.00  0.01  0.00
  WSF200WS02003060        1.00   0.00  0.05  0.00  0.53  0.42  0.00  0.00  0.72  0.00
  YS02001580YS02001583    1.00   0.22  0.58  0.00  0.20  0.00  0.00  0.00  0.68  0.00
  YS02001583YS02001586    1.00   0.42  0.32  0.00  0.26  0.00  0.00  0.00  0.68  0.00
  YS02001586YS02001590    1.00   0.13  0.00  0.00  0.43  0.04  0.00  0.40  0.36  0.00
  YS02001590YS02001593    1.00   0.13  0.01  0.00  0.12  0.00  0.74  0.00  0.00  0.00
  YS02001593YS02001596    1.00   0.14  0.00  0.00  0.14  0.01  0.00  0.71  0.02  0.00
  YS02001596YS02001600    1.00   0.14  0.00  0.00  0.21  0.01  0.00  0.64  0.05  0.00
  YS02001600YS02001601    1.00   0.13  0.01  0.00  0.86  0.00  0.00  0.00  0.60  0.00
  YS02001601YS02001602    1.00   0.13  0.01  0.00  0.86  0.00  0.00  0.00  0.00  0.00
  YS02001602YS02001605    1.00   0.14  0.00  0.00  0.86  0.00  0.00  0.00  0.00  0.00
  YS02001605YS02001607    1.00   0.14  0.00  0.00  0.86  0.00  0.00  0.00  0.00  0.00
  YS02001607YS02001610    1.00   0.13  0.01  0.00  0.86  0.00  0.00  0.00  0.01  0.00
  YS02001610YS02001613    1.00   0.13  0.00  0.00  0.87  0.00  0.00  0.00  0.00  0.00
  YS02001613YS02001616    1.00   0.13  0.00  0.00  0.87  0.00  0.00  0.00  0.00  0.00
  YS02001616YS02001619    1.00   0.13  0.00  0.00  0.87  0.00  0.00  0.00  0.00  0.00
  YS02001619YS02001622    1.00   0.13  0.00  0.00  0.87  0.00  0.00  0.00  0.28  0.00
  YS02001622YS02001625    1.00   0.13  0.00  0.00  0.87  0.00  0.00  0.00  0.04  0.00
  YS02001625YS02001629    1.00   0.13  0.05  0.00  0.17  0.00  0.65  0.00  0.00  0.00
  YS02001629YS02163301    1.00   0.15  0.01  0.00  0.84  0.00  0.00  0.00  0.00  0.00
  YS02001633YS02163601    1.00   0.00  0.01  0.00  0.99  0.00  0.00  0.00  0.15  0.00
  YS02001641YS02001644    1.00   0.00  0.01  0.00  0.99  0.00  0.00  0.00  0.00  0.00
  YS02001644YS02001647    1.00   0.00  0.17  0.00  0.83  0.00  0.00  0.00  0.00  0.00
  YS02001647YS02001649    1.00   0.00  0.17  0.00  0.49  0.34  0.00  0.00  0.56  0.00
  YS02001649YS02001757    1.00   0.00  0.00  0.00  0.63  0.37  0.00  0.00  0.54  0.00
  YS02001652YS02001649    1.00   0.00  0.00  0.00  0.97  0.03  0.00  0.00  0.73  0.00
  YS02001655YS02001652    1.00   0.00  0.00  0.00  0.19  0.01  0.00  0.80  0.10  0.00
  YS02001658YS02001655    1.00   0.00  0.14  0.00  0.61  0.25  0.00  0.00  0.72  0.00
  YS02001661YS02001658    1.00   0.14  0.00  0.00  0.45  0.41  0.00  0.00  0.73  0.00
  YS02001664YS02001661    1.00   0.13  0.00  0.00  0.73  0.14  0.00  0.00  0.85  0.00
  YS02001745YS02001748    1.00   0.00  0.00  0.00  0.05  0.01  0.00  0.94  0.02  0.00
  YS02001748YS02001751    1.00   0.00  0.00  0.00  0.76  0.24  0.00  0.00  0.83  0.00
  YS02001751YS02001754    1.00   0.00  0.00  0.00  0.12  0.01  0.00  0.87  0.05  0.00
  YS02001754YS02001757    1.00   0.00  0.00  0.00  1.00  0.00  0.00  0.00  0.85  0.00
  YS02001757CaochengTiaoxuchi    1.00   0.00  0.00  0.00  0.74  0.26  0.00  0.00  0.77  0.00
  YS02001759YS02001757    1.00   0.00  0.00  0.00  1.00  0.00  0.00  0.00  0.62  0.00
  YS02001762YS02001759    1.00   0.00  0.00  0.00  1.00  0.00  0.00  0.00  0.03  0.00
  YS02001765YS02001762    1.00   0.00  0.00  0.00  1.00  0.00  0.00  0.00  0.73  0.00
  YS02001767YS02001765    1.00   0.00  0.00  0.00  1.00  0.00  0.00  0.00  0.00  0.00
  YS02001770YS02001767    1.00   0.00  0.00  0.00  1.00  0.00  0.00  0.00  0.00  0.00
  YS02001774YS02001770    1.00   0.00  0.13  0.00  0.71  0.00  0.16  0.00  0.03  0.00
  YS02001779YS02001774    1.00   0.00  0.00  0.00  1.00  0.00  0.00  0.00  0.78  0.00
  YS02001783YS02001784    1.00   0.00  0.18  0.00  0.82  0.00  0.00  0.00  0.55  0.00
  YS02001784YS02001785    1.00   0.00  0.00  0.00  1.00  0.00  0.00  0.00  0.17  0.00
  YS02001786YS02001788    1.00   0.00  0.00  0.00  0.79  0.21  0.00  0.00  0.00  0.00
  YS02001788YS02001790    1.00   0.00  0.00  0.00  0.21  0.79  0.00  0.00  0.80  0.00
  YS02001790YS02001791    1.00   0.00  0.00  0.00  0.01  0.99  0.00  0.00  0.16  0.00
  YS02001791YS02001793    1.00   0.00  0.00  0.00  0.00  1.00  0.00  0.00  0.01  0.00
  YS02001793JiankangQianchi    1.00   0.00  0.00  0.00  0.44  0.56  0.00  0.00  0.77  0.00
  YS02001882YS02001884    1.00   0.15  0.01  0.00  0.84  0.00  0.00  0.00  0.00  0.00
  YS02001884YS02001887    1.00   0.06  0.05  0.00  0.89  0.00  0.00  0.00  0.00  0.00
  YS02001887YS02001890    1.00   0.00  0.00  0.00  0.97  0.00  0.03  0.00  0.00  0.00
  YS02001890YS02001895    1.00   0.00  0.16  0.00  0.84  0.00  0.00  0.00  0.00  0.00
  YS02001895YS02001898    1.00   0.16  0.00  0.00  0.82  0.00  0.02  0.00  0.00  0.00
  YS02001898YS02001901    1.00   0.17  0.00  0.00  0.83  0.00  0.00  0.00  0.01  0.00
  YS02001901YS02001904    1.00   0.16  0.00  0.00  0.84  0.00  0.00  0.00  0.00  0.00
  YS02001904YS02001907    1.00   0.00  0.16  0.00  0.84  0.00  0.00  0.00  0.00  0.00
  YS02001907YS02006553    1.00   0.00  0.02  0.00  0.98  0.00  0.00  0.00  0.00  0.00
  YS02001910YS02001907    1.00   0.00  0.00  0.00  0.97  0.00  0.00  0.03  0.12  0.00
  YS02001915YS02001910    1.00   0.00  0.00  0.00  0.97  0.03  0.00  0.00  0.16  0.00
  YS02001918YS02001915    1.00   0.00  0.01  0.00  0.98  0.02  0.00  0.00  0.74  0.00
  YS02001920YS02001918    1.00   0.00  0.01  0.00  0.99  0.00  0.00  0.00  0.00  0.00
  YS02001923YS02001920    1.00   0.00  0.00  0.00  1.00  0.00  0.00  0.00  0.92  0.00
  YS02001926YS02001923    1.00   0.00  0.07  0.00  0.07  0.00  0.86  0.00  0.00  0.00
  YS02001929YS02001926    1.00   0.00  0.13  0.00  0.87  0.00  0.00  0.00  0.81  0.00
  YS02006553YS02006556    1.00   0.01  0.00  0.00  0.99  0.00  0.00  0.00  0.03  0.00
  YS02006556YS02006558    1.00   0.00  0.00  0.00  1.00  0.00  0.00  0.00  0.00  0.00
  YS02006558YS02006561    1.00   0.18  0.00  0.00  0.06  0.76  0.00  0.00  0.19  0.00
  YS02006561YS02001783    1.00   0.18  0.00  0.00  0.10  0.73  0.00  0.00  0.68  0.00
  YS02163301YS02001633    1.00   0.00  0.15  0.00  0.85  0.00  0.00  0.00  0.00  0.00
  YS02163601YS02164001    1.00   0.00  0.08  0.00  0.92  0.00  0.00  0.00  0.00  0.00
  YS02164001YS02001641    1.00   0.01  0.08  0.00  0.92  0.00  0.00  0.00  0.06  0.00
  
  
  *************************
  Conduit Surcharge Summary
  *************************
  
  ----------------------------------------------------------------------------
                                                           Hours        Hours 
                         --------- Hours Full --------   Above Full   Capacity
  Conduit                Both Ends  Upstream  Dnstream   Normal Flow   Limited
  ----------------------------------------------------------------------------
  WS02003072WS02003073        0.01      0.01      0.01      0.66         0.01
  WS02004404WS02004405        0.01      0.01      0.01      2.29         0.01
  WS02006109WS02006110        0.01      0.01      1.75      0.01         0.01
  WS02006110WS02006113        0.01      0.01      1.73      0.01         0.01
  WS02006111WS02006112        0.01      0.01      1.78      0.01         0.01
  WS02006228WS02006109        1.68      1.75      1.68      2.02         1.68
  WS02006229WS02006228        1.66      1.69      1.66      1.92         1.66
  WS02006230WS02006229        1.82      1.86      1.82      2.65         1.82
  WS02006231WS02006230        0.01      0.01      0.25      2.39         0.01
  WS02006232WS02006231        0.10      0.10      1.77      0.26         0.01
  WS02006234WS02006232        1.34      1.34      1.77      0.12         0.35
  WS02006235WS02006234        0.73      0.78      1.50      2.26         0.20
  WS02006238WS02006235        1.65      1.65      1.79      0.01         0.09
  WS02006239WS02006238        1.72      1.78      1.73      1.92         1.40
  WS02006240WS02006239        1.64      1.72      1.64      1.93         1.37
  WS02006242WS02006240        1.69      1.69      1.85      2.01         0.04
  WS02006243WS02006242        1.73      1.73      1.81      0.01         0.25
  WS02006245WS02006243        1.71      1.72      1.72      2.00         1.41
  WS02006247WS02006245        1.71      1.75      1.71      2.10         1.57
  WS02006248WS02006247        1.71      1.71      1.73      0.01         0.40
  WS02006249WS02006248        1.70      1.70      1.72      2.09         0.01
  WS02006251WS02006249        1.72      1.73      1.72      2.07         1.31
  WS02006252WS02006251        2.10      2.10      2.10      2.10         0.01
  WS02006256WS02006235        1.94      2.32      3.85      0.46         0.10
  YS02001580YS02001583        0.69      0.69      0.70      0.01         0.01
  YS02001583YS02001586        0.69      0.69      0.79      0.01         0.01
  YS02001586YS02001590        0.79      0.79      0.86      0.01         0.01
  YS02001590YS02001593        0.86      0.86      0.88      0.96         0.01
  YS02001593YS02001596        0.87      0.87      0.97      0.01         0.01
  YS02001596YS02001600        1.02      1.02      1.14      0.01         0.01
  YS02001600YS02001601        1.21      1.21      1.52      0.01         0.01
  YS02001601YS02001602        1.43      1.43      1.56      1.17         0.01
  YS02001602YS02001605        1.37      1.37      1.43      2.27         0.01
  YS02001605YS02001607        1.31      1.37      1.31      1.50         1.31
  YS02001607YS02001610        0.78      0.78      0.81      0.01         0.01
  YS02001610YS02001613        0.77      0.77      0.81      0.01         0.01
  YS02001613YS02001616        0.73      0.73      0.77      0.01         0.01
  YS02001616YS02001619        0.71      0.71      0.73      0.01         0.06
  YS02001619YS02001622        0.70      0.71      0.70      0.91         0.68
  YS02001622YS02001625        0.70      0.70      0.91      0.01         0.01
  YS02001625YS02001629        0.58      0.58      0.91      0.01         0.01
  YS02001629YS02163301        0.89      0.89      0.90      0.40         0.38
  YS02001633YS02163601        0.91      0.91      0.94      0.53         0.52
  YS02001641YS02001644        0.72      0.79      0.72      1.58         0.71
  YS02001644YS02001647        0.46      0.46      0.72      0.04         0.01
  YS02001647YS02001649        0.46      0.46      0.50      0.01         0.01
  YS02001649YS02001757        0.49      0.50      0.49      0.43         0.34
  YS02001652YS02001649        0.39      0.39      0.50      0.01         0.01
  YS02001655YS02001652        0.28      0.28      0.37      0.01         0.01
  YS02001658YS02001655        0.20      0.20      0.28      0.01         0.01
  YS02001661YS02001658        0.09      0.09      0.20      0.01         0.01
  YS02001664YS02001661        0.01      0.01      0.11      0.01         0.01
  YS02001745YS02001748        0.01      0.01      0.13      0.01         0.01
  YS02001748YS02001751        0.18      0.18      0.22      0.01         0.01
  YS02001751YS02001754        0.22      0.22      0.28      0.01         0.01
  YS02001754YS02001757        0.30      0.30      0.49      0.01         0.01
  YS02001757CaochengTiaoxuchi        0.01      0.49      0.36      0.57         0.01
  YS02001759YS02001757        0.43      0.43      0.49      0.07         0.08
  YS02001762YS02001759        0.41      0.41      0.43      0.01         0.03
  YS02001765YS02001762        0.39      0.39      0.41      0.01         0.01
  YS02001767YS02001765        0.37      0.37      0.39      0.03         0.05
  YS02001770YS02001767        0.37      0.38      0.37      0.65         0.36
  YS02001774YS02001770        0.36      0.36      0.41      0.01         0.01
  YS02001779YS02001774        0.30      0.30      0.41      0.01         0.01
  YS02001783YS02001784        0.57      0.60      0.57      0.73         0.57
  YS02001784YS02001785        0.47      0.57      0.47      0.97         0.47
  YS02001786YS02001788        0.01      0.47      0.01      0.84         0.01
  YS02001790YS02001791        0.01      0.01      0.01      0.56         0.01
  YS02001882YS02001884        0.54      0.54      0.55      0.01         0.01
  YS02001884YS02001887        0.57      0.57      0.58      0.01         0.01
  YS02001887YS02001890        0.60      0.60      0.61      0.16         0.01
  YS02001890YS02001895        0.53      0.53      0.63      0.01         0.01
  YS02001895YS02001898        0.52      0.52      0.53      0.01         0.01
  YS02001898YS02001901        0.53      0.53      0.57      0.01         0.01
  YS02001901YS02001904        0.56      0.56      0.57      0.01         0.01
  YS02001904YS02001907        0.56      0.56      0.82      0.01         0.01
  YS02001907YS02006553        0.98      0.98      1.06      0.01         0.01
  YS02001910YS02001907        0.63      0.63      0.80      0.01         0.01
  YS02001915YS02001910        0.54      0.54      0.63      0.01         0.01
  YS02001918YS02001915        0.46      0.46      0.54      0.01         0.01
  YS02001920YS02001918        0.45      0.46      0.47      0.01         0.01
  YS02001923YS02001920        0.41      0.41      0.47      0.01         0.01
  YS02001926YS02001923        0.16      0.16      0.19      0.01         0.01
  YS02001929YS02001926        0.02      0.02      0.19      0.01         0.01
  YS02006553YS02006556        0.71      0.71      0.82      0.01         0.01
  YS02006556YS02006558        0.76      0.76      0.83      0.01         0.01
  YS02006558YS02006561        0.49      0.70      0.49      0.93         0.49
  YS02006561YS02001783        0.42      0.42      0.60      0.01         0.01
  YS02163301YS02001633        0.90      0.90      0.94      0.01         0.03
  YS02163601YS02164001        0.81      0.81      0.94      0.32         0.01
  YS02164001YS02001641        0.79      0.81      0.79      0.79         0.60
  
  
  ***************
  Pumping Summary
  ***************
  
  ---------------------------------------------------------------------------------------------------------
                                                  Min       Avg       Max     Total     Power    % Time Off
                        Percent   Number of      Flow      Flow      Flow    Volume     Usage    Pump Curve
  Pump                 Utilized   Start-Ups       LPS       LPS       LPS  10^6 ltr     Kw-hr    Low   High
  ---------------------------------------------------------------------------------------------------------
  CC-R1                   26.53           3      0.00    683.00    683.00     5.165     86.12    0.0   82.7
  CC-R2                   26.53           3      0.00    683.00    683.00     5.165     86.12    0.0   82.7
  CC-S1                   26.53           3      0.00    200.00    200.00     1.512     11.17    0.0   23.3
  CC-S2                   26.53           3      0.00    200.00    200.00     1.512     11.17    0.0   23.3
  JK-R1                    6.96         283      0.00   1000.00   1000.00     1.982      5.33    0.0    0.0
  JK-R2                    6.96         283      0.00   1000.00   1000.00     1.982      5.33    0.0    0.0
  JK-S                     6.96         283      0.00    300.00    300.00     0.595     13.43    0.0    0.0
  

  Analysis begun on:  Tue Apr 22 10:14:43 2025
  Analysis ended on:  Tue Apr 22 10:14:45 2025
  Total elapsed time: 00:00:02