
  EPA STORM WATER MANAGEMENT MODEL - VERSION 5.2 (Build 5.2.4)
  PYSWMM TOOLKIT API - VERSION v1.0 (2023-11-27)
  ------------------------------------------------------------

  WARNING 04: minimum elevation drop used for Conduit WS02004404WS02004405
  WARNING 03: negative offset ignored for Link YS02001904YS02001907
  
  ****************
  Analysis Options
  ****************
  Flow Units ............... LPS
  Process Models:
    Rainfall/Runoff ........ YES
    RDII ................... NO
    Snowmelt ............... NO
    Groundwater ............ NO
    Flow Routing ........... YES
    Ponding Allowed ........ NO
    Water Quality .......... NO
  Infiltration Method ...... HORTON
  Flow Routing Method ...... DYNWAVE
  Surcharge Method ......... EXTRAN
  Starting Date ............ 08/28/2015 08:00:00
  Ending Date .............. 08/28/2015 16:00:00
  Antecedent Dry Days ...... 8.0
  Report Time Step ......... 00:01:00
  Wet Time Step ............ 00:01:00
  Dry Time Step ............ 00:01:00
  Routing Time Step ........ 30.00 sec
  Variable Time Step ....... YES
  Maximum Trials ........... 8
  Number of Threads ........ 4
  Head Tolerance ........... 0.001500 m
  
  
  **************************        Volume         Depth
  Runoff Quantity Continuity     hectare-m            mm
  **************************     ---------       -------
  Total Precipitation ......         2.631        79.310
  Evaporation Loss .........         0.000         0.000
  Infiltration Loss ........         0.103         3.101
  Surface Runoff ...........         2.495        75.229
  Final Storage ............         0.033         0.998
  Continuity Error (%) .....        -0.022
  
  
  **************************        Volume        Volume
  Flow Routing Continuity        hectare-m      10^6 ltr
  **************************     ---------     ---------
  Dry Weather Inflow .......         0.025         0.248
  Wet Weather Inflow .......         2.495        24.950
  Groundwater Inflow .......         0.000         0.000
  RDII Inflow ..............         0.000         0.000
  External Inflow ..........         0.083         0.825
  External Outflow .........         1.943        19.429
  Flooding Loss ............         0.845         8.448
  Evaporation Loss .........         0.000         0.000
  Exfiltration Loss ........         0.000         0.000
  Initial Stored Volume ....         0.243         2.431
  Final Stored Volume ......         0.076         0.756
  Continuity Error (%) .....        -0.627
  
  
  *************************
  Highest Continuity Errors
  *************************
  Node WS02006256 (-13.60%)
  Node YS02001884 (5.21%)
  Node YS02001583 (-4.31%)
  Node JK-storage (-1.52%)
  
  
  ***************************
  Time-Step Critical Elements
  ***************************
  Link YS02001793JiankangQianchi (22.60%)
  Link WS02004404WS02004405 (21.03%)
  Link WS02006238WS02006235 (19.27%)
  Link WS02003066WSF200 (12.01%)
  Link WS02006235WS02006234 (6.49%)
  
  
  ********************************
  Highest Flow Instability Indexes
  ********************************
  Link WS02006113WS02006111 (38)
  Link WS02006229WS02006228 (36)
  Link WS02006252WS02006251 (31)
  Link WS02006256WS02006235 (27)
  Link WS02006228WS02006109 (24)
  
  
  *********************************
  Most Frequent Nonconverging Nodes
  *********************************
  Node CC-1 (37.65%)
  Node CC-2 (37.65%)
  Node JK-1 (37.65%)
  Node JK-2 (37.65%)
  Node WSC (37.65%)
  
  
  *************************
  Routing Time Step Summary
  *************************
  Minimum Time Step           :     0.02 sec
  Average Time Step           :     3.02 sec
  Maximum Time Step           :     6.43 sec
  % of Time in Steady State   :     0.00
  Average Iterations per Step :     4.60
  % of Steps Not Converging   :    37.65
  Time Step Frequencies       :
     30.000 - 13.228 sec      :     0.00 %
     13.228 -  5.833 sec      :    18.69 %
      5.833 -  2.572 sec      :    26.89 %
      2.572 -  1.134 sec      :    40.67 %
      1.134 -  0.500 sec      :    13.76 %
  
  
  ***************************
  Subcatchment Runoff Summary
  ***************************
  
  ------------------------------------------------------------------------------------------------------------------------------
                            Total      Total      Total      Total     Imperv       Perv      Total       Total     Peak  Runoff
                           Precip      Runon       Evap      Infil     Runoff     Runoff     Runoff      Runoff   Runoff   Coeff
  Subcatchment                 mm         mm         mm         mm         mm         mm         mm    10^6 ltr      LPS
  ------------------------------------------------------------------------------------------------------------------------------
  sub60                     79.31       0.00       0.00       1.85      68.59       7.67      76.27        1.00   707.10   0.962
  sub61                     79.31       0.00       0.00       2.68      64.70      10.81      75.51        1.39   983.98   0.952
  sub62                     79.31       0.00       0.00       1.23      71.68       5.12      76.80        2.10  1379.24   0.968
  sub63                     79.31       0.00       0.00       4.96      55.34      18.04      73.38        1.67  1121.13   0.925
  sub64                     79.31       0.00       0.00       2.51      66.21       9.39      75.60        1.82  1142.84   0.953
  sub65                     79.31       0.00       0.00       2.17      67.75       8.14      75.89        2.09  1281.63   0.957
  sub66                     79.31       0.00       0.00       6.19      55.23      16.81      72.04        3.36  1724.32   0.908
  sub67                     79.31       0.00       0.00       1.18      71.73       5.17      76.89        1.43  1056.64   0.970
  sub68                     79.31       0.00       0.00       2.22      67.02       8.89      75.91        2.09  1418.98   0.957
  sub69                     79.31       0.00       0.00       2.00      67.30       9.90      77.20        2.86  1703.59   0.973
  sub70                     79.31       0.00       0.00       6.73      52.18      20.23      72.41        2.09   970.72   0.913
  sub71                     79.31       0.00       0.00       1.26      71.64       5.08      76.72        2.01  1234.30   0.967
  sub72                     79.31       0.00       0.00       1.13      72.35       4.43      76.78        1.06   603.17   0.968
  
  
  ******************
  Node Depth Summary
  ******************
  
  ---------------------------------------------------------------------------------
                                 Average  Maximum  Maximum  Time of Max    Reported
                                   Depth    Depth      HGL   Occurrence   Max Depth
  Node                 Type       Meters   Meters   Meters  days hr:min      Meters
  ---------------------------------------------------------------------------------
  WS02003060           JUNCTION     0.21     0.36     5.30     0  02:31        0.36
  WS02003066           JUNCTION     0.18     0.29     5.84     0  02:30        0.29
  WS02003067           JUNCTION     0.47     0.68     6.00     0  02:30        0.68
  WS02003069           JUNCTION     0.24     0.41     4.99     0  02:31        0.41
  WS02003072           JUNCTION     0.30     0.48     4.85     0  02:32        0.48
  WS02003073           JUNCTION     0.17     0.28     4.35     0  02:33        0.28
  WS02004401           JUNCTION     0.57     0.83     6.83     0  02:24        0.83
  WS02004402           JUNCTION     0.60     0.86     6.82     0  02:27        0.86
  WS02004403           JUNCTION     0.62     0.88     6.81     0  02:14        0.88
  WS02004404           JUNCTION     0.69     0.97     6.82     0  02:14        0.96
  WS02004405           JUNCTION     0.68     0.93     6.78     0  02:14        0.93
  WS02004406           JUNCTION     0.69     0.93     6.76     0  02:14        0.93
  WS02004407           JUNCTION     0.16     0.28     6.59     0  02:15        0.28
  WS02004409           JUNCTION     0.36     0.63     6.40     0  02:29        0.63
  WS02004410           JUNCTION     0.38     0.65     6.37     0  02:29        0.65
  WS02004411           JUNCTION     0.40     0.66     6.34     0  02:29        0.66
  WS02004412           JUNCTION     0.42     0.67     6.31     0  02:29        0.67
  WS02004413           JUNCTION     0.57     0.83     6.30     0  02:30        0.83
  WS02006109           JUNCTION     0.63     0.93     7.55     0  02:08        0.92
  WS02006110           JUNCTION     0.63     0.89     7.48     0  02:08        0.89
  WS02006111           JUNCTION     0.17     0.28     6.98     0  02:09        0.27
  WS02006112           JUNCTION     0.72     1.03     6.91     0  02:20        1.02
  WS02006113           JUNCTION     0.26     0.43     7.33     0  02:09        0.43
  WS02006115           JUNCTION     0.46     0.73     6.87     0  02:29        0.73
  WS02006116           JUNCTION     0.54     0.81     6.85     0  02:13        0.81
  WS02006228           JUNCTION     0.63     0.96     7.61     0  02:08        0.95
  WS02006229           JUNCTION     0.60     0.96     7.65     0  02:08        0.95
  WS02006230           JUNCTION     0.60     1.02     7.77     0  02:26        1.01
  WS02006231           JUNCTION     0.40     1.69     8.81     0  02:30        1.15
  WS02006232           JUNCTION     0.53     1.66     8.70     0  02:45        1.61
  WS02006234           JUNCTION     0.46     1.96     9.12     0  02:08        1.96
  WS02006235           JUNCTION     0.50     2.00     9.16     0  02:29        2.00
  WS02006238           JUNCTION     0.53     2.15     9.29     0  02:29        2.15
  WS02006239           JUNCTION     0.50     2.03     9.24     0  02:26        2.03
  WS02006240           JUNCTION     0.48     2.10     9.39     0  02:08        2.10
  WS02006242           JUNCTION     0.55     1.55     8.82     0  02:05        1.55
  WS02006243           JUNCTION     0.49     1.48     8.90     0  01:57        1.48
  WS02006245           JUNCTION     0.49     1.56     9.04     0  02:15        1.56
  WS02006247           JUNCTION     0.51     1.47     8.97     0  02:15        1.47
  WS02006248           JUNCTION     0.49     1.10     8.69     0  01:57        1.10
  WS02006249           JUNCTION     0.51     1.09     8.69     0  01:57        1.09
  WS02006251           JUNCTION     0.52     1.20     8.87     0  02:26        1.17
  WS02006252           JUNCTION     0.33     1.50     9.74     0  00:00        0.90
  WS02006256           JUNCTION     0.86     2.35     9.28     0  00:00        2.35
  WSF200               JUNCTION     0.15     0.28     5.51     0  02:30        0.28
  YS02001580           JUNCTION     0.18     1.05     9.59     0  01:59        0.77
  YS02001583           JUNCTION     0.21     1.14     9.64     0  01:59        0.88
  YS02001586           JUNCTION     0.33     1.13     9.30     0  01:59        1.13
  YS02001590           JUNCTION     0.45     1.40     9.26     0  01:59        1.39
  YS02001593           JUNCTION     0.38     1.33     9.19     0  01:59        1.29
  YS02001596           JUNCTION     0.52     1.69     9.11     0  01:59        1.67
  YS02001600           JUNCTION     0.62     1.87     9.00     0  01:59        1.87
  YS02001601           JUNCTION     0.81     2.06     8.90     0  01:58        2.06
  YS02001602           JUNCTION     0.70     1.87     8.77     0  01:59        1.87
  YS02001605           JUNCTION     0.64     1.78     8.68     0  02:07        1.78
  YS02001607           JUNCTION     0.59     1.66     8.50     0  02:22        1.66
  YS02001610           JUNCTION     0.63     1.68     8.48     0  02:03        1.68
  YS02001613           JUNCTION     0.60     1.68     8.52     0  02:22        1.68
  YS02001616           JUNCTION     0.53     1.61     8.52     0  02:04        1.61
  YS02001619           JUNCTION     0.51     1.61     8.54     0  02:04        1.61
  YS02001622           JUNCTION     0.50     1.59     8.49     0  02:22        1.58
  YS02001625           JUNCTION     0.73     1.78     8.38     0  02:03        1.78
  YS02001629           JUNCTION     0.64     1.85     8.40     0  02:06        1.85
  YS02001633           JUNCTION     0.71     2.03     8.48     0  02:07        2.02
  YS02001641           JUNCTION     0.66     1.98     8.42     0  02:07        1.95
  YS02001644           JUNCTION     0.64     1.92     8.35     0  02:07        1.92
  YS02001647           JUNCTION     0.42     1.76     8.37     0  02:11        1.75
  YS02001649           JUNCTION     0.47     1.99     8.38     0  02:12        1.98
  YS02001652           JUNCTION     0.34     1.85     8.45     0  02:12        1.84
  YS02001655           JUNCTION     0.26     1.78     8.63     0  02:06        1.64
  YS02001658           JUNCTION     0.19     1.70     8.84     0  02:07        1.43
  YS02001661           JUNCTION     0.20     1.24     8.64     0  02:12        1.23
  YS02001664           JUNCTION     0.09     0.72     8.65     0  02:12        0.71
  YS02001745           JUNCTION     0.10     0.89     8.40     0  02:12        0.87
  YS02001748           JUNCTION     0.16     1.63     8.71     0  02:08        1.30
  YS02001751           JUNCTION     0.20     1.61     8.49     0  02:06        1.46
  YS02001754           JUNCTION     0.28     1.72     8.33     0  02:08        1.71
  YS02001757           JUNCTION     0.46     2.03     8.29     0  02:12        2.02
  YS02001759           JUNCTION     0.41     2.05     8.41     0  02:12        2.05
  YS02001762           JUNCTION     0.40     2.02     8.42     0  02:12        2.02
  YS02001765           JUNCTION     0.38     1.97     8.42     0  02:11        1.97
  YS02001767           JUNCTION     0.37     1.95     8.44     0  02:12        1.94
  YS02001770           JUNCTION     0.38     1.95     8.44     0  02:10        1.95
  YS02001774           JUNCTION     0.44     2.00     8.42     0  02:12        1.99
  YS02001779           JUNCTION     0.27     1.68     8.37     0  02:05        1.68
  YS02001783           JUNCTION     0.37     1.35     7.49     0  02:04        1.24
  YS02001784           JUNCTION     0.37     1.18     7.25     0  02:04        1.12
  YS02001786           JUNCTION     0.31     0.92     6.95     0  02:04        0.87
  YS02001788           JUNCTION     0.22     0.63     6.60     0  02:11        0.62
  YS02001790           JUNCTION     0.26     0.72     6.37     0  02:15        0.72
  YS02001791           JUNCTION     0.16     0.44     5.91     0  02:10        0.44
  YS02001793           JUNCTION     0.09     0.25     5.08     0  02:04        0.24
  YS02001882           JUNCTION     0.46     1.68     8.39     0  02:13        1.68
  YS02001884           JUNCTION     0.54     1.78     8.39     0  02:12        1.78
  YS02001887           JUNCTION     0.62     1.86     8.40     0  02:12        1.86
  YS02001890           JUNCTION     0.64     1.81     8.32     0  02:04        1.81
  YS02001895           JUNCTION     0.43     1.57     8.32     0  02:22        1.57
  YS02001898           JUNCTION     0.44     1.58     8.31     0  02:22        1.56
  YS02001901           JUNCTION     0.54     1.69     8.30     0  02:22        1.68
  YS02001904           JUNCTION     0.52     1.64     8.27     0  02:19        1.63
  YS02001907           JUNCTION     0.82     1.96     8.25     0  02:04        1.96
  YS02001910           JUNCTION     0.64     2.02     8.53     0  02:05        2.02
  YS02001915           JUNCTION     0.47     1.99     8.71     0  02:05        1.99
  YS02001918           JUNCTION     0.30     1.81     8.88     0  02:05        1.81
  YS02001920           JUNCTION     0.38     2.14     9.15     0  02:05        2.14
  YS02001923           JUNCTION     0.24     2.03     9.29     0  02:05        2.03
  YS02001926           JUNCTION     0.25     1.90     9.35     0  02:04        1.90
  YS02001929           JUNCTION     0.16     1.78     9.47     0  02:04        1.78
  YS02006553           JUNCTION     0.82     1.99     8.27     0  02:04        1.98
  YS02006556           JUNCTION     0.79     1.98     8.29     0  02:04        1.97
  YS02006558           JUNCTION     0.83     2.03     8.30     0  02:11        2.03
  YS02006561           JUNCTION     0.24     1.03     7.69     0  02:04        0.91
  YS02163301           JUNCTION     0.66     1.92     8.44     0  02:11        1.92
  YS02163601           JUNCTION     0.73     2.07     8.47     0  02:07        2.03
  YS02164001           JUNCTION     0.65     1.99     8.45     0  02:07        1.95
  CC-1                 OUTFALL      0.00     0.00     0.00     0  00:00        0.00
  CC-2                 OUTFALL      0.00     0.00     0.00     0  00:00        0.00
  JK-1                 OUTFALL      0.00     0.00     0.00     0  00:00        0.00
  JK-2                 OUTFALL      0.00     0.00     0.00     0  00:00        0.00
  WSC                  OUTFALL      0.17     0.28     0.95     0  02:33        0.28
  CC-storage           STORAGE      0.40     1.15     6.65     0  02:46        1.15
  JK-storage           STORAGE      0.11     2.99     3.79     0  00:00        0.68
  
  
  *******************
  Node Inflow Summary
  *******************
  
  -------------------------------------------------------------------------------------------------
                                  Maximum  Maximum                  Lateral       Total        Flow
                                  Lateral    Total  Time of Max      Inflow      Inflow     Balance
                                   Inflow   Inflow   Occurrence      Volume      Volume       Error
  Node                 Type           LPS      LPS  days hr:min    10^6 ltr    10^6 ltr     Percent
  -------------------------------------------------------------------------------------------------
  WS02003060           JUNCTION     16.53   504.44     0  02:30       0.471        4.21       0.044
  WS02003066           JUNCTION      0.00   487.82     0  02:30           0        3.74       0.035
  WS02003067           JUNCTION      0.00   487.80     0  02:30           0        3.75       0.106
  WS02003069           JUNCTION      0.32   504.63     0  02:31     0.00912        4.22       0.084
  WS02003072           JUNCTION      0.00   504.51     0  02:31           0        4.22       0.155
  WS02003073           JUNCTION      1.82   506.21     0  02:32      0.0519        4.26       0.117
  WS02004401           JUNCTION      0.00   491.59     0  02:09           0        3.84       0.260
  WS02004402           JUNCTION      0.00   491.22     0  02:09           0        3.83       0.264
  WS02004403           JUNCTION      0.00   492.66     0  02:09           0        3.82       0.261
  WS02004404           JUNCTION      0.16   508.25     0  02:14     0.00462        3.82       0.171
  WS02004405           JUNCTION      0.04   551.73     0  02:14     0.00109        3.81       0.288
  WS02004406           JUNCTION      0.00   492.60     0  02:28           0         3.8       0.544
  WS02004407           JUNCTION      0.00   489.48     0  02:14           0        3.78       0.022
  WS02004409           JUNCTION      0.00   489.04     0  02:15           0        3.78       0.058
  WS02004410           JUNCTION      0.00   488.55     0  02:15           0        3.78       0.107
  WS02004411           JUNCTION      0.00   488.32     0  02:29           0        3.77       0.138
  WS02004412           JUNCTION      0.00   487.99     0  02:29           0        3.77       0.185
  WS02004413           JUNCTION      0.00   488.05     0  02:30           0        3.76       0.350
  WS02006109           JUNCTION      1.23   496.69     0  02:08      0.0351        3.89       0.180
  WS02006110           JUNCTION      0.00   496.53     0  02:08           0        3.88       0.164
  WS02006111           JUNCTION      0.00   512.00     0  02:08           0        3.87       0.027
  WS02006112           JUNCTION      0.00   498.74     0  02:09           0        3.87       0.521
  WS02006113           JUNCTION      0.00   497.20     0  02:08           0        3.87       0.034
  WS02006115           JUNCTION      0.00   497.73     0  02:09           0        3.85       0.176
  WS02006116           JUNCTION      0.00   494.06     0  02:09           0        3.84       0.068
  WS02006228           JUNCTION      0.00   495.86     0  02:08           0        3.85       0.058
  WS02006229           JUNCTION      0.00   494.99     0  02:08           0        3.86       0.137
  WS02006230           JUNCTION     10.28   543.55     0  02:30       0.293        3.86       0.134
  WS02006231           JUNCTION      0.00   545.57     0  02:30           0        3.57      -0.073
  WS02006232           JUNCTION      0.00   545.84     0  02:30           0        3.58       0.258
  WS02006234           JUNCTION      0.00   540.64     0  02:30           0        3.56      -0.463
  WS02006235           JUNCTION      0.00   540.32     0  02:26           0        3.62      -0.070
  WS02006238           JUNCTION      0.00   424.66     0  02:02           0        3.26      -0.099
  WS02006239           JUNCTION      0.00   420.70     0  02:48           0        3.21      -0.272
  WS02006240           JUNCTION      0.00   419.12     0  02:48           0        3.19      -0.122
  WS02006242           JUNCTION      0.00   419.04     0  02:48           0        3.19       0.003
  WS02006243           JUNCTION      0.00   419.52     0  02:48           0        3.19       0.038
  WS02006245           JUNCTION      0.00   420.31     0  02:48           0        3.21       0.460
  WS02006247           JUNCTION      0.00   420.59     0  02:48           0        3.21       0.010
  WS02006248           JUNCTION      0.00   420.98     0  02:48           0        3.22       0.098
  WS02006249           JUNCTION      0.00   481.10     0  01:48           0        3.24       0.406
  WS02006251           JUNCTION      0.08   404.85     0  02:22     0.00219        3.24      -0.036
  WS02006252           JUNCTION      0.00   400.00     0  00:00           0        3.23      -0.059
  WS02006256           JUNCTION      0.00   300.00     0  00:00           0       0.631     -11.974
  WSF200               JUNCTION      0.00   487.80     0  02:30           0        3.74       0.009
  YS02001580           JUNCTION      0.00    75.69     0  01:59           0     0.00404       2.528
  YS02001583           JUNCTION      0.00   128.71     0  01:58           0      0.0153      -4.129
  YS02001586           JUNCTION    970.72   971.02     0  02:15        2.09         2.1       0.052
  YS02001590           JUNCTION      0.00   318.55     0  02:22           0        1.48      -0.034
  YS02001593           JUNCTION      0.00   318.39     0  02:22           0        1.48       0.016
  YS02001596           JUNCTION      0.00   317.92     0  02:06           0        1.48       0.001
  YS02001600           JUNCTION      0.00   318.05     0  02:29           0        1.48       0.025
  YS02001601           JUNCTION   1703.59  2021.58     0  02:14        2.86        4.34       0.024
  YS02001602           JUNCTION      0.00   508.52     0  02:43           0         2.5       0.023
  YS02001605           JUNCTION      0.00   508.62     0  02:44           0        2.39       0.028
  YS02001607           JUNCTION      0.00   508.63     0  02:44           0        2.39       0.086
  YS02001610           JUNCTION      0.00   948.00     0  02:16           0        2.82       0.088
  YS02001613           JUNCTION      0.00   611.37     0  02:16           0        2.31       0.071
  YS02001616           JUNCTION      0.00   611.67     0  02:16           0        2.31       0.024
  YS02001619           JUNCTION   1724.32  1724.32     0  02:15        3.36        5.22       0.002
  YS02001622           JUNCTION      0.00  1053.58     0  02:16           0        4.77       0.002
  YS02001625           JUNCTION      0.00  1501.17     0  02:16           0        5.06       0.178
  YS02001629           JUNCTION      0.00   958.15     0  02:36           0        4.05       0.025
  YS02001633           JUNCTION   1281.83  1372.90     0  02:03        2.09        5.77       0.062
  YS02001641           JUNCTION      0.00  1373.85     0  02:03           0        5.41       0.057
  YS02001644           JUNCTION   1142.88  1783.10     0  02:14        1.82        7.22       0.047
  YS02001647           JUNCTION      0.00  1772.91     0  02:03           0        6.56       0.009
  YS02001649           JUNCTION      0.00  2023.19     0  02:04           0        8.23       0.006
  YS02001652           JUNCTION      0.00  1137.51     0  02:13           0        1.67      -0.061
  YS02001655           JUNCTION      0.15  1137.35     0  02:13     0.00439        1.67       0.012
  YS02001658           JUNCTION      0.00  1137.07     0  02:13           0        1.67      -0.003
  YS02001661           JUNCTION      0.00  1136.77     0  02:13           0        1.67       0.008
  YS02001664           JUNCTION   1121.13  1121.13     0  02:13        1.67        1.67      -0.005
  YS02001745           JUNCTION    707.10   707.10     0  02:13           1           1       0.095
  YS02001748           JUNCTION      0.04   713.99     0  02:13     0.00128           1      -0.128
  YS02001751           JUNCTION      0.01   714.68     0  02:13    0.000313        1.01       0.051
  YS02001754           JUNCTION      0.26   714.91     0  02:13     0.00741        1.02      -0.082
  YS02001757           JUNCTION      0.00  3562.66     0  02:13           0        12.4       0.052
  YS02001759           JUNCTION    984.02  1493.74     0  02:13        1.39        3.18      -0.004
  YS02001762           JUNCTION      0.00   829.41     0  02:20           0         1.8       0.010
  YS02001765           JUNCTION      0.00   829.08     0  02:20           0         1.8       0.008
  YS02001767           JUNCTION      0.54   828.99     0  02:20      0.0152         1.8       0.014
  YS02001770           JUNCTION   1379.40  1379.40     0  02:13        2.11        2.15      -0.003
  YS02001774           JUNCTION      0.00   838.72     0  02:14           0       0.379       0.352
  YS02001779           JUNCTION      0.01   839.52     0  02:14    0.000142       0.337      -0.126
  YS02001783           JUNCTION      0.00  1169.26     0  02:12           0         4.5       0.006
  YS02001784           JUNCTION      1.06  1170.49     0  02:12      0.0302        4.53       0.012
  YS02001786           JUNCTION      0.06  1170.56     0  02:12      0.0016        4.53       0.016
  YS02001788           JUNCTION      0.07  1171.07     0  02:12     0.00202        4.53       0.006
  YS02001790           JUNCTION      0.15  1177.78     0  02:12     0.00442        4.53       0.006
  YS02001791           JUNCTION      0.00  1290.22     0  02:15           0        4.53      -0.008
  YS02001793           JUNCTION      0.00  1252.05     0  02:13           0        4.53      -0.041
  YS02001882           JUNCTION      0.00    34.30     0  02:01           0      0.0127       5.433
  YS02001884           JUNCTION      0.00    46.78     0  02:00           0      0.0483       5.496
  YS02001887           JUNCTION   1057.09  1057.58     0  02:13        1.44        1.48       0.306
  YS02001890           JUNCTION      0.00  1057.80     0  02:13           0        1.43       0.361
  YS02001895           JUNCTION      0.00   518.92     0  02:15           0        1.23       0.133
  YS02001898           JUNCTION      0.00   517.88     0  02:18           0        1.23       0.030
  YS02001901           JUNCTION      0.00   517.92     0  02:17           0        1.23       0.274
  YS02001904           JUNCTION      0.00   517.90     0  02:18           0        1.24       0.235
  YS02001907           JUNCTION      0.00  2604.13     0  02:14           0        4.42       0.415
  YS02001910           JUNCTION      0.00  1841.39     0  02:14           0        3.14       0.231
  YS02001915           JUNCTION   1234.32  1841.91     0  02:14        2.01        3.17       0.051
  YS02001918           JUNCTION      0.00   611.25     0  02:14           0        1.19       0.021
  YS02001920           JUNCTION      2.87   611.01     0  02:14      0.0818        1.17       0.089
  YS02001923           JUNCTION      0.04   606.65     0  02:14     0.00107        1.08      -0.001
  YS02001926           JUNCTION      0.05   605.77     0  02:14     0.00149        1.06       0.007
  YS02001929           JUNCTION    603.17   603.17     0  02:14        1.06        1.06      -0.066
  YS02006553           JUNCTION      0.00   802.32     0  02:31           0        2.53       0.465
  YS02006556           JUNCTION      0.00   802.38     0  02:31           0        2.54       0.332
  YS02006558           JUNCTION   1419.86  1419.86     0  02:13        2.11        4.58       0.073
  YS02006561           JUNCTION      0.00  1169.17     0  02:13           0         4.5       0.003
  YS02163301           JUNCTION      0.00   958.84     0  02:34           0        4.04       0.043
  YS02163601           JUNCTION      0.11  1373.03     0  02:03     0.00313         5.4       0.096
  YS02164001           JUNCTION      0.00  1373.56     0  02:03           0         5.4       0.047
  CC-1                 OUTFALL       0.00   683.00     0  00:00           0        5.52       0.000
  CC-2                 OUTFALL       0.00   683.00     0  00:00           0        5.52       0.000
  JK-1                 OUTFALL       0.00  1000.00     0  00:00           0        2.07       0.000
  JK-2                 OUTFALL       0.00  1000.00     0  00:00           0        2.07       0.000
  WSC                  OUTFALL       0.00   506.12     0  02:33           0        4.26       0.000
  CC-storage           STORAGE       0.00  3561.75     0  02:13           0        14.7      -0.318
  JK-storage           STORAGE       0.00  1369.51     0  02:16           0        4.69      -1.501
  
  
  **********************
  Node Surcharge Summary
  **********************
  
  Surcharging occurs when water rises above the top of the highest conduit.
  ---------------------------------------------------------------------
                                               Max. Height   Min. Depth
                                   Hours       Above Crown    Below Rim
  Node                 Type      Surcharged         Meters       Meters
  ---------------------------------------------------------------------
  WS02006109           JUNCTION        1.76          0.109        1.711
  WS02006112           JUNCTION        0.54          0.030        1.650
  WS02006228           JUNCTION        1.74          0.132        2.068
  WS02006229           JUNCTION        1.77          0.156        2.294
  WS02006231           JUNCTION        0.13          0.978        0.552
  WS02006232           JUNCTION        1.85          0.956        0.524
  WS02006234           JUNCTION        0.86          1.240        0.000
  WS02006235           JUNCTION        1.61          1.290        0.000
  WS02006238           JUNCTION        1.81          1.430        0.000
  WS02006239           JUNCTION        1.73          1.290        0.000
  WS02006240           JUNCTION        1.76          1.390        0.000
  WS02006242           JUNCTION        1.90          0.820        0.000
  WS02006243           JUNCTION        1.80          0.770        0.000
  WS02006245           JUNCTION        1.80          0.850        0.000
  WS02006247           JUNCTION        1.82          0.760        0.000
  WS02006248           JUNCTION        1.79          0.380        0.000
  WS02006249           JUNCTION        1.81          0.390        0.000
  WS02006251           JUNCTION        0.61          0.171        1.009
  WS02006252           JUNCTION        2.24          1.100        0.000
  WS02006256           JUNCTION        4.60          2.050        0.000
  YS02001580           JUNCTION        0.74          0.450        0.000
  YS02001583           JUNCTION        0.74          0.500        0.000
  YS02001586           JUNCTION        0.84          0.510        0.000
  YS02001590           JUNCTION        0.92          0.750        0.000
  YS02001593           JUNCTION        0.92          0.707        0.133
  YS02001596           JUNCTION        1.05          0.957        0.113
  YS02001600           JUNCTION        1.23          1.190        0.000
  YS02001601           JUNCTION        1.56          1.440        0.000
  YS02001602           JUNCTION        1.45          1.270        0.000
  YS02001605           JUNCTION        1.40          1.180        0.000
  YS02001607           JUNCTION        0.85          0.657        0.023
  YS02001610           JUNCTION        0.88          0.680        0.000
  YS02001613           JUNCTION        0.84          0.678        0.022
  YS02001616           JUNCTION        0.79          0.610        0.000
  YS02001619           JUNCTION        0.78          0.610        0.000
  YS02001622           JUNCTION        0.77          0.590        0.030
  YS02001625           JUNCTION        0.99          0.780        0.000
  YS02001629           JUNCTION        0.67          0.470        0.000
  YS02001633           JUNCTION        0.99          1.007        0.053
  YS02001641           JUNCTION        0.86          0.978        0.122
  YS02001644           JUNCTION        0.79          0.920        0.000
  YS02001647           JUNCTION        0.52          0.759        0.141
  YS02001649           JUNCTION        0.58          0.991        0.059
  YS02001652           JUNCTION        0.40          0.823        0.307
  YS02001655           JUNCTION        0.33          0.780        0.420
  YS02001658           JUNCTION        0.24          0.702        0.598
  YS02001661           JUNCTION        0.08          0.169        1.221
  YS02001748           JUNCTION        0.15          0.553        0.637
  YS02001751           JUNCTION        0.26          0.614        0.586
  YS02001754           JUNCTION        0.32          0.670        0.480
  YS02001757           JUNCTION        0.58          1.030        0.180
  YS02001759           JUNCTION        0.50          1.049        0.161
  YS02001762           JUNCTION        0.47          1.016        0.134
  YS02001765           JUNCTION        0.43          0.973        0.127
  YS02001767           JUNCTION        0.40          0.948        0.082
  YS02001770           JUNCTION        0.40          0.920        0.000
  YS02001774           JUNCTION        0.47          1.002        0.048
  YS02001779           JUNCTION        0.34          0.680        0.000
  YS02001783           JUNCTION        0.64          0.547        1.053
  YS02001784           JUNCTION        0.61          0.379        1.111
  YS02001786           JUNCTION        0.50          0.118        1.312
  YS02001882           JUNCTION        0.58          0.676        0.154
  YS02001884           JUNCTION        0.59          0.717        0.153
  YS02001887           JUNCTION        0.63          0.809        0.141
  YS02001890           JUNCTION        0.65          0.760        0.000
  YS02001895           JUNCTION        0.57          0.573        0.177
  YS02001898           JUNCTION        0.56          0.549        0.191
  YS02001901           JUNCTION        0.61          0.688        0.182
  YS02001904           JUNCTION        0.60          0.644        0.206
  YS02001907           JUNCTION        0.90          0.950        0.000
  YS02001910           JUNCTION        0.68          1.022        0.078
  YS02001915           JUNCTION        0.58          0.991        0.009
  YS02001918           JUNCTION        0.48          0.810        0.000
  YS02001920           JUNCTION        0.50          1.140        0.000
  YS02001923           JUNCTION        0.18          0.820        0.000
  YS02001926           JUNCTION        0.22          0.900        0.000
  YS02001929           JUNCTION        0.06          0.780        0.000
  YS02006553           JUNCTION        0.91          0.988        0.202
  YS02006556           JUNCTION        0.78          0.943        0.407
  YS02006558           JUNCTION        0.76          0.933        0.467
  YS02006561           JUNCTION        0.45          0.232        0.918
  YS02163301           JUNCTION        0.97          0.923        0.107
  YS02163601           JUNCTION        1.03          1.069        0.011
  YS02164001           JUNCTION        0.88          0.991        0.109
  
  
  *********************
  Node Flooding Summary
  *********************
  
  Flooding refers to all water that overflows a node, whether it ponds or not.
  --------------------------------------------------------------------------
                                                             Total   Maximum
                                 Maximum   Time of Max       Flood    Ponded
                        Hours       Rate    Occurrence      Volume     Depth
  Node                 Flooded       LPS   days hr:min    10^6 ltr    Meters
  --------------------------------------------------------------------------
  WS02006234              0.01     59.81      0  02:11       0.000     0.000
  WS02006235              0.01     22.07      0  02:29       0.000     0.000
  WS02006238              0.01     24.43      0  02:29       0.000     0.000
  WS02006239              0.01     10.63      0  02:29       0.000     0.000
  WS02006240              0.01     22.68      0  02:08       0.000     0.000
  WS02006242              0.02     30.41      0  02:26       0.001     0.000
  WS02006243              0.01      8.41      0  01:57       0.000     0.000
  WS02006245              0.01      4.55      0  02:15       0.000     0.000
  WS02006247              0.01      4.16      0  02:15       0.000     0.000
  WS02006248              0.20     25.48      0  02:14       0.009     0.000
  WS02006249              0.27     23.47      0  02:08       0.006     0.000
  WS02006252              0.01    245.63      0  00:00       0.000     0.000
  WS02006256              0.59    293.19      0  00:00       0.357     0.000
  YS02001580              0.01      4.13      0  01:59       0.000     0.000
  YS02001583              0.01     30.65      0  01:59       0.000     0.000
  YS02001586              0.60    653.32      0  02:15       0.609     0.000
  YS02001590              0.01      6.82      0  01:59       0.000     0.000
  YS02001600              0.01      1.99      0  01:59       0.000     0.000
  YS02001601              0.76   1623.52      0  02:14       1.836     0.000
  YS02001602              0.56     61.97      0  02:26       0.116     0.000
  YS02001605              0.01      0.27      0  02:07       0.000     0.000
  YS02001610              0.51    947.95      0  02:16       0.958     0.000
  YS02001616              0.06     12.86      0  02:22       0.000     0.000
  YS02001619              0.08     82.08      0  02:14       0.012     0.000
  YS02001625              0.42   1501.08      0  02:16       1.365     0.000
  YS02001629              0.20    212.21      0  02:13       0.081     0.000
  YS02001644              0.23   1549.95      0  02:13       0.643     0.000
  YS02001770              0.04     66.49      0  02:13       0.004     0.000
  YS02001779              0.20    839.22      0  02:14       0.320     0.000
  YS02001890              0.24    541.35      0  02:13       0.198     0.000
  YS02001907              0.43   2602.80      0  02:14       1.934     0.000
  YS02001918              0.01    103.62      0  02:05       0.001     0.000
  YS02001920              0.01     24.91      0  02:05       0.000     0.000
  YS02001923              0.01     42.95      0  02:05       0.000     0.000
  YS02001926              0.01     28.35      0  02:05       0.000     0.000
  YS02001929              0.01    228.31      0  02:04       0.001     0.000
  
  
  **********************
  Storage Volume Summary
  **********************
  
  ------------------------------------------------------------------------------------------------
                         Average    Avg   Evap  Exfil     Maximum    Max    Time of Max    Maximum
                          Volume   Pcnt   Pcnt   Pcnt      Volume   Pcnt     Occurrence    Outflow
  Storage Unit           1000 m³   Full   Loss   Loss     1000 m³   Full    days hr:min        LPS
  ------------------------------------------------------------------------------------------------
  CC-storage               1.116   17.4    0.0    0.0       3.212   50.1       0  02:46    1783.53
  JK-storage               0.006    1.9    0.0    0.0       0.150   51.6       0  00:00    2300.00
  
  
  ***********************
  Outfall Loading Summary
  ***********************
  
  -----------------------------------------------------------
                         Flow       Avg       Max       Total
                         Freq      Flow      Flow      Volume
  Outfall Node           Pcnt       LPS       LPS    10^6 ltr
  -----------------------------------------------------------
  CC-1                  52.94    683.00    683.00       5.519
  CC-2                  52.94    683.00    683.00       5.519
  JK-1                  15.58   1000.00   1000.00       2.068
  JK-2                  15.58   1000.00   1000.00       2.068
  WSC                   99.94    226.83    506.12       4.256
  -----------------------------------------------------------
  System                47.39   3592.83   3872.11      19.429
  
  
  ********************
  Link Flow Summary
  ********************
  
  -----------------------------------------------------------------------------
                                 Maximum  Time of Max   Maximum    Max/    Max/
                                  |Flow|   Occurrence   |Veloc|    Full    Full
  Link                 Type          LPS  days hr:min     m/sec    Flow   Depth
  -----------------------------------------------------------------------------
  1                    CONDUIT    506.12     0  02:33      2.75    0.18    0.28
  WS02003060WS02003069 CONDUIT    504.31     0  02:31      1.60    0.20    0.32
  WS02003066WSF200     CONDUIT    487.80     0  02:30      2.79    0.08    0.21
  WS02003067WS02003066 CONDUIT    487.82     0  02:30      1.14    0.16    0.40
  WS02003069WS02003072 CONDUIT    504.51     0  02:31      1.33    0.24    0.37
  WS02003072WS02003073 CONDUIT    504.39     0  02:32      1.39    1.09    0.36
  WS02004401WS02004402 CONDUIT    491.22     0  02:09      1.22    0.59    0.85
  WS02004402WS02004403 CONDUIT    492.66     0  02:09      1.24    0.71    0.87
  WS02004403WS02004404 CONDUIT    508.09     0  02:14      1.24    0.37    0.92
  WS02004404WS02004405 CONDUIT    551.69     0  02:14      1.45    5.41    0.94
  WS02004405WS02004406 CONDUIT    492.60     0  02:28      1.46    0.97    0.93
  WS02004406WS02004407 CONDUIT    489.48     0  02:14      0.98    0.22    0.61
  WS02004407WS02004409 CONDUIT    489.04     0  02:15      1.59    0.17    0.46
  WS02004409WS02004410 CONDUIT    488.55     0  02:15      1.06    0.63    0.64
  WS02004410WS02004411 CONDUIT    488.32     0  02:29      1.13    0.67    0.65
  WS02004411WS02004412 CONDUIT    487.99     0  02:29      1.20    0.69    0.66
  WS02004412WS02004413 CONDUIT    488.05     0  02:30      1.22    0.33    0.75
  WS02004413WS02003067 CONDUIT    487.80     0  02:30      1.05    0.21    0.57
  WS02006109WS02006110 CONDUIT    496.53     0  02:08      0.99    0.95    0.99
  WS02006110WS02006113 CONDUIT    497.20     0  02:08      1.20    0.45    0.77
  WS02006111WS02006112 CONDUIT    498.74     0  02:09      1.95    0.24    0.67
  WS02006112WS02006115 CONDUIT    497.73     0  02:09      0.82    0.29    0.86
  WS02006113WS02006111 CONDUIT    512.00     0  02:08      2.39    0.61    0.44
  WS02006115WS02006116 CONDUIT    494.06     0  02:09      1.29    0.63    0.74
  WS02006116WS02004401 CONDUIT    491.59     0  02:09      1.21    0.68    0.82
  WS02006228WS02006109 CONDUIT    495.46     0  02:08      1.06    2.16    1.00
  WS02006229WS02006228 CONDUIT    495.86     0  02:08      1.12    1.64    1.00
  WS02006230WS02006229 CONDUIT    494.99     0  02:08      1.29   11.02    1.00
  WS02006231WS02006230 CONDUIT    533.27     0  02:30      1.43    8.09    0.96
  WS02006232WS02006231 CONDUIT    545.57     0  02:30      1.42    1.14    1.00
  WS02006234WS02006232 CONDUIT    545.84     0  02:30      1.42    1.10    1.00
  WS02006235WS02006234 CONDUIT    540.64     0  02:30      1.40    5.70    1.00
  WS02006238WS02006235 CONDUIT    442.26     0  02:29      1.45    0.99    1.00
  WS02006239WS02006238 CONDUIT    424.66     0  02:02      1.17    1.36    1.00
  WS02006240WS02006239 CONDUIT    420.70     0  02:48      1.24    1.32    1.00
  WS02006242WS02006240 CONDUIT    419.12     0  02:48      1.16    1.66    1.00
  WS02006243WS02006242 CONDUIT    419.04     0  02:48      1.43    0.90    1.00
  WS02006245WS02006243 CONDUIT    419.52     0  02:48      1.44    1.24    1.00
  WS02006247WS02006245 CONDUIT    420.31     0  02:48      1.43    3.33    1.00
  WS02006248WS02006247 CONDUIT    420.59     0  02:48      1.45    0.92    1.00
  WS02006249WS02006248 CONDUIT    420.98     0  02:48      1.39    2.31    1.00
  WS02006251WS02006249 CONDUIT    481.10     0  01:48      1.99    1.39    1.00
  WS02006252WS02006251 CONDUIT    404.77     0  02:22     18.84    1.49    1.00
  WS02006256WS02006235 CONDUIT    288.91     0  00:00      4.23    3.06    1.00
  WSF200WS02003060     CONDUIT    487.91     0  02:30      2.01    0.11    0.27
  YS02001580YS02001583 CONDUIT     75.69     0  01:59      0.55    0.29    1.00
  YS02001583YS02001586 CONDUIT    128.71     0  01:58      0.53    0.19    1.00
  YS02001586YS02001590 CONDUIT    318.55     0  02:22      1.28    0.56    1.00
  YS02001590YS02001593 CONDUIT    318.39     0  02:22      1.13    2.00    1.00
  YS02001593YS02001596 CONDUIT    317.92     0  02:06      1.78    0.50    1.00
  YS02001596YS02001600 CONDUIT    318.05     0  02:29      1.27    0.62    1.00
  YS02001600YS02001601 CONDUIT    318.04     0  02:15      1.12    0.55    1.00
  YS02001601YS02001602 CONDUIT    508.52     0  02:43      1.80    1.84    1.00
  YS02001602YS02001605 CONDUIT    508.62     0  02:44      1.80   10.76    1.00
  YS02001605YS02001607 CONDUIT    508.63     0  02:44      1.80    2.79    1.00
  YS02001607YS02001610 CONDUIT    509.34     0  02:43      0.65    0.48    1.00
  YS02001610YS02001613 CONDUIT    611.82     0  02:16      0.78    0.71    1.00
  YS02001613YS02001616 CONDUIT    611.37     0  02:16      0.78    0.52    1.00
  YS02001616YS02001619 CONDUIT    611.67     0  02:16      0.78    1.06    1.00
  YS02001619YS02001622 CONDUIT   1053.58     0  02:16      1.34    1.55    1.00
  YS02001622YS02001625 CONDUIT   1053.30     0  02:15      1.34    0.56    1.00
  YS02001625YS02001629 CONDUIT    958.15     0  02:36      1.22    0.46    1.00
  YS02001629YS02163301 CONDUIT    958.84     0  02:34      1.22    1.18    1.00
  YS02001633YS02163601 CONDUIT   1372.92     0  02:03      1.75    1.44    1.00
  YS02001641YS02001644 CONDUIT   1374.51     0  02:03      1.75    4.44    1.00
  YS02001644YS02001647 CONDUIT   1772.91     0  02:03      2.26    1.04    1.00
  YS02001647YS02001649 CONDUIT   1772.71     0  02:04      2.32    0.94    1.00
  YS02001649YS02001757 CONDUIT   2023.29     0  02:04      2.58    1.23    1.00
  YS02001652YS02001649 CONDUIT   1137.26     0  02:13      1.45    0.56    1.00
  YS02001655YS02001652 CONDUIT   1137.51     0  02:13      1.45    0.55    1.00
  YS02001658YS02001655 CONDUIT   1137.20     0  02:13      1.83    0.48    1.00
  YS02001661YS02001658 CONDUIT   1137.07     0  02:13      2.28    0.45    1.00
  YS02001664YS02001661 CONDUIT   1136.77     0  02:13      2.26    0.36    0.86
  YS02001745YS02001748 CONDUIT    713.95     0  02:13      2.13    0.27    0.94
  YS02001748YS02001751 CONDUIT    714.67     0  02:13      1.64    0.36    1.00
  YS02001751YS02001754 CONDUIT    714.65     0  02:13      1.37    0.34    1.00
  YS02001754YS02001757 CONDUIT    715.25     0  02:13      0.91    0.29    1.00
  YS02001757CaochengTiaoxuchi CONDUIT   3561.75     0  02:13      6.23    1.54    1.00
  YS02001759YS02001757 CONDUIT   1494.03     0  02:13      1.90    1.06    1.00
  YS02001762YS02001759 CONDUIT    830.52     0  02:20      1.06    0.96    1.00
  YS02001765YS02001762 CONDUIT    829.41     0  02:20      1.06    0.78    1.00
  YS02001767YS02001765 CONDUIT    829.08     0  02:20      1.06    1.04    1.00
  YS02001770YS02001767 CONDUIT    828.45     0  02:20      1.05    3.28    1.00
  YS02001774YS02001770 CONDUIT    838.72     0  02:14      1.07    0.54    1.00
  YS02001779YS02001774 CONDUIT    839.52     0  02:14      1.07    0.42    1.00
  YS02001783YS02001784 CONDUIT   1169.43     0  02:12      2.33    1.61    1.00
  YS02001784YS02001785 CONDUIT   1170.50     0  02:12      2.33    2.72    1.00
  YS02001786YS02001788 CONDUIT   1171.00     0  02:12      2.49    2.26    0.89
  YS02001788YS02001790 CONDUIT   1177.62     0  02:12      2.73    0.87    0.84
  YS02001790YS02001791 CONDUIT   1290.22     0  02:15      3.43    1.40    0.70
  YS02001791YS02001793 CONDUIT   1252.05     0  02:13      6.80    0.54    0.42
  YS02001793JiankangQianchi CONDUIT   1369.51     0  02:16     15.12    0.11    0.50
  YS02001882YS02001884 CONDUIT     34.30     0  02:01      0.14    0.04    1.00
  YS02001884YS02001887 CONDUIT     46.78     0  02:00      0.10    0.06    1.00
  YS02001887YS02001890 CONDUIT   1057.80     0  02:13      1.35    1.81    1.00
  YS02001890YS02001895 CONDUIT    518.92     0  02:15      0.66    0.24    1.00
  YS02001895YS02001898 CONDUIT    517.88     0  02:18      0.66    0.90    1.00
  YS02001898YS02001901 CONDUIT    517.92     0  02:17      0.66    0.33    1.00
  YS02001901YS02001904 CONDUIT    517.90     0  02:18      0.66    0.80    1.00
  YS02001904YS02001907 CONDUIT    519.24     0  02:15      0.66    0.18    1.00
  YS02001907YS02006553 CONDUIT    802.32     0  02:31      0.89    0.94    1.00
  YS02001910YS02001907 CONDUIT   1841.50     0  02:14      2.34    1.04    1.00
  YS02001915YS02001910 CONDUIT   1841.39     0  02:14      2.34    0.91    1.00
  YS02001918YS02001915 CONDUIT    611.65     0  02:14      0.78    0.34    1.00
  YS02001920YS02001918 CONDUIT    611.25     0  02:14      0.78    0.59    1.00
  YS02001923YS02001920 CONDUIT    608.14     0  02:14      0.77    0.27    1.00
  YS02001926YS02001923 CONDUIT    606.61     0  02:14      0.94    0.87    1.00
  YS02001929YS02001926 CONDUIT    605.71     0  02:14      1.08    0.29    1.00
  YS02006553YS02006556 CONDUIT    802.38     0  02:31      1.02    0.69    1.00
  YS02006556YS02006558 CONDUIT    802.83     0  02:31      1.02    0.63    1.00
  YS02006558YS02006561 CONDUIT   1169.17     0  02:13      4.14    2.58    1.00
  YS02006561YS02001783 CONDUIT   1169.26     0  02:12      2.33    0.61    1.00
  YS02163301YS02001633 CONDUIT    958.92     0  02:35      1.22    0.90    1.00
  YS02163601YS02164001 CONDUIT   1373.56     0  02:03      1.75    1.22    1.00
  YS02164001YS02001641 CONDUIT   1373.85     0  02:03      1.75    1.88    1.00
  CC-R1                PUMP       683.00     0  00:00              1.00
  CC-R2                PUMP       683.00     0  00:00              1.00
  CC-S1                PUMP       200.00     0  00:00              1.00
  CC-S2                PUMP       200.00     0  00:00              1.00
  JK-R1                PUMP      1000.00     0  00:00              1.00
  JK-R2                PUMP      1000.00     0  00:00              1.00
  JK-S                 PUMP       300.00     0  00:00              1.00
  
  
  ***************************
  Flow Classification Summary
  ***************************
  
  -------------------------------------------------------------------------------------
                      Adjusted    ---------- Fraction of Time in Flow Class ---------- 
                       /Actual         Up    Down  Sub   Sup   Up    Down  Norm  Inlet 
  Conduit               Length    Dry  Dry   Dry   Crit  Crit  Crit  Crit  Ltd   Ctrl  
  -------------------------------------------------------------------------------------
  1                       1.00   0.00  0.00  0.00  0.00  1.00  0.00  0.00  0.60  0.00
  WS02003060WS02003069    1.00   0.00  0.00  0.00  0.97  0.03  0.00  0.00  0.74  0.00
  WS02003066WSF200        1.00   0.05  0.00  0.00  0.00  0.95  0.00  0.00  0.92  0.00
  WS02003067WS02003066    1.00   0.05  0.00  0.00  0.95  0.00  0.00  0.00  0.00  0.00
  WS02003069WS02003072    1.00   0.00  0.00  0.00  0.99  0.01  0.00  0.00  0.76  0.00
  WS02003072WS02003073    1.00   0.00  0.00  0.00  0.00  0.00  0.00  1.00  0.00  0.00
  WS02004401WS02004402    1.00   0.02  0.00  0.00  0.98  0.00  0.00  0.00  0.00  0.00
  WS02004402WS02004403    1.00   0.02  0.00  0.00  0.98  0.00  0.00  0.00  0.00  0.00
  WS02004403WS02004404    1.00   0.00  0.03  0.00  0.97  0.00  0.00  0.00  0.00  0.00
  WS02004404WS02004405    1.00   0.00  0.00  0.00  1.00  0.00  0.00  0.00  0.01  0.00
  WS02004405WS02004406    1.00   0.00  0.00  0.00  1.00  0.00  0.00  0.00  0.00  0.00
  WS02004406WS02004407    1.00   0.00  0.03  0.00  0.97  0.00  0.00  0.00  0.00  0.00
  WS02004407WS02004409    1.00   0.03  0.00  0.00  0.95  0.01  0.00  0.00  0.96  0.00
  WS02004409WS02004410    1.00   0.03  0.00  0.00  0.96  0.00  0.00  0.00  0.00  0.00
  WS02004410WS02004411    1.00   0.04  0.00  0.00  0.96  0.00  0.00  0.00  0.00  0.00
  WS02004411WS02004412    1.00   0.04  0.00  0.00  0.96  0.00  0.00  0.00  0.00  0.00
  WS02004412WS02004413    1.00   0.04  0.00  0.00  0.96  0.00  0.00  0.00  0.00  0.00
  WS02004413WS02003067    1.00   0.04  0.01  0.00  0.00  0.00  0.95  0.00  0.00  0.00
  WS02006109WS02006110    1.00   0.00  0.01  0.00  0.98  0.00  0.01  0.00  0.00  0.00
  WS02006110WS02006113    1.00   0.01  0.01  0.00  0.98  0.00  0.00  0.00  0.00  0.00
  WS02006111WS02006112    1.00   0.02  0.00  0.00  0.98  0.00  0.00  0.00  0.98  0.00
  WS02006112WS02006115    1.00   0.02  0.00  0.00  0.97  0.00  0.00  0.00  0.00  0.00
  WS02006113WS02006111    1.00   0.02  0.00  0.00  0.00  0.98  0.00  0.00  0.11  0.00
  WS02006115WS02006116    1.00   0.02  0.00  0.00  0.97  0.00  0.00  0.01  0.00  0.00
  WS02006116WS02004401    1.00   0.02  0.00  0.00  0.98  0.00  0.00  0.00  0.00  0.00
  WS02006228WS02006109    1.00   0.00  0.00  0.00  1.00  0.00  0.00  0.00  0.00  0.00
  WS02006229WS02006228    1.00   0.00  0.00  0.00  0.99  0.00  0.00  0.01  0.00  0.00
  WS02006230WS02006229    1.00   0.00  0.00  0.00  0.99  0.00  0.00  0.01  0.01  0.00
  WS02006231WS02006230    1.00   0.00  0.00  0.00  0.24  0.00  0.75  0.00  0.00  0.00
  WS02006232WS02006231    1.00   0.00  0.00  0.00  0.99  0.00  0.01  0.00  0.00  0.00
  WS02006234WS02006232    1.00   0.00  0.00  0.00  1.00  0.00  0.00  0.00  0.18  0.00
  WS02006235WS02006234    1.00   0.00  0.00  0.00  0.59  0.00  0.41  0.00  0.00  0.00
  WS02006238WS02006235    1.00   0.00  0.00  0.00  1.00  0.00  0.00  0.00  0.01  0.00
  WS02006239WS02006238    1.00   0.00  0.00  0.00  1.00  0.00  0.00  0.00  0.35  0.00
  WS02006240WS02006239    1.00   0.00  0.00  0.00  0.51  0.00  0.00  0.49  0.04  0.00
  WS02006242WS02006240    1.00   0.00  0.00  0.00  0.99  0.00  0.01  0.00  0.00  0.00
  WS02006243WS02006242    1.00   0.00  0.00  0.00  0.99  0.00  0.00  0.01  0.66  0.00
  WS02006245WS02006243    1.00   0.00  0.00  0.00  0.49  0.00  0.00  0.50  0.01  0.00
  WS02006247WS02006245    1.00   0.00  0.00  0.00  0.99  0.00  0.00  0.01  0.00  0.00
  WS02006248WS02006247    1.00   0.00  0.00  0.00  0.99  0.00  0.00  0.01  0.19  0.00
  WS02006249WS02006248    1.00   0.00  0.00  0.00  0.33  0.00  0.67  0.00  0.00  0.00
  WS02006251WS02006249    1.00   0.00  0.00  0.00  1.00  0.00  0.00  0.00  0.67  0.00
  WS02006252WS02006251    1.00   0.00  0.70  0.00  0.08  0.00  0.22  0.00  0.10  0.00
  WS02006256WS02006235    1.00   0.00  0.00  0.00  0.99  0.01  0.00  0.00  0.01  0.00
  WSF200WS02003060        1.00   0.00  0.05  0.00  0.50  0.45  0.00  0.00  0.69  0.00
  YS02001580YS02001583    1.00   0.25  0.55  0.00  0.21  0.00  0.00  0.00  0.64  0.00
  YS02001583YS02001586    1.00   0.40  0.33  0.00  0.26  0.00  0.00  0.00  0.64  0.00
  YS02001586YS02001590    1.00   0.13  0.00  0.00  0.46  0.04  0.00  0.38  0.37  0.00
  YS02001590YS02001593    1.00   0.13  0.01  0.00  0.13  0.00  0.73  0.00  0.00  0.00
  YS02001593YS02001596    1.00   0.13  0.00  0.00  0.15  0.01  0.00  0.70  0.02  0.00
  YS02001596YS02001600    1.00   0.14  0.00  0.00  0.22  0.01  0.00  0.63  0.04  0.00
  YS02001600YS02001601    1.00   0.13  0.01  0.00  0.86  0.00  0.00  0.00  0.58  0.00
  YS02001601YS02001602    1.00   0.13  0.01  0.00  0.87  0.00  0.00  0.00  0.00  0.00
  YS02001602YS02001605    1.00   0.14  0.00  0.00  0.86  0.00  0.00  0.00  0.00  0.00
  YS02001605YS02001607    1.00   0.14  0.00  0.00  0.86  0.00  0.00  0.00  0.00  0.00
  YS02001607YS02001610    1.00   0.13  0.01  0.00  0.86  0.00  0.00  0.00  0.01  0.00
  YS02001610YS02001613    1.00   0.13  0.00  0.00  0.87  0.00  0.00  0.00  0.00  0.00
  YS02001613YS02001616    1.00   0.13  0.00  0.00  0.87  0.00  0.00  0.00  0.00  0.00
  YS02001616YS02001619    1.00   0.13  0.00  0.00  0.87  0.00  0.00  0.00  0.00  0.00
  YS02001619YS02001622    1.00   0.13  0.00  0.00  0.87  0.00  0.00  0.00  0.27  0.00
  YS02001622YS02001625    1.00   0.13  0.00  0.00  0.87  0.00  0.00  0.00  0.04  0.00
  YS02001625YS02001629    1.00   0.13  0.04  0.00  0.18  0.00  0.65  0.00  0.00  0.00
  YS02001629YS02163301    1.00   0.15  0.01  0.00  0.84  0.00  0.00  0.00  0.00  0.00
  YS02001633YS02163601    1.00   0.00  0.01  0.00  0.99  0.00  0.00  0.00  0.15  0.00
  YS02001641YS02001644    1.00   0.00  0.01  0.00  0.99  0.00  0.00  0.00  0.00  0.00
  YS02001644YS02001647    1.00   0.00  0.17  0.00  0.83  0.00  0.00  0.00  0.00  0.00
  YS02001647YS02001649    1.00   0.00  0.17  0.00  0.50  0.33  0.00  0.00  0.55  0.00
  YS02001649YS02001757    1.00   0.00  0.00  0.00  0.66  0.34  0.00  0.00  0.50  0.00
  YS02001652YS02001649    1.00   0.00  0.00  0.00  0.97  0.03  0.00  0.00  0.73  0.00
  YS02001655YS02001652    1.00   0.00  0.00  0.00  0.20  0.01  0.00  0.79  0.09  0.00
  YS02001658YS02001655    1.00   0.00  0.14  0.00  0.62  0.24  0.00  0.00  0.72  0.00
  YS02001661YS02001658    1.00   0.14  0.00  0.00  0.45  0.41  0.00  0.00  0.71  0.00
  YS02001664YS02001661    1.00   0.13  0.00  0.00  0.72  0.15  0.00  0.00  0.84  0.00
  YS02001745YS02001748    1.00   0.00  0.00  0.00  0.05  0.01  0.00  0.93  0.03  0.00
  YS02001748YS02001751    1.00   0.00  0.00  0.00  0.77  0.23  0.00  0.00  0.79  0.00
  YS02001751YS02001754    1.00   0.00  0.00  0.00  0.13  0.01  0.00  0.85  0.04  0.00
  YS02001754YS02001757    1.00   0.00  0.00  0.00  1.00  0.00  0.00  0.00  0.84  0.00
  YS02001757CaochengTiaoxuchi    1.00   0.00  0.00  0.00  0.74  0.26  0.00  0.00  0.75  0.00
  YS02001759YS02001757    1.00   0.00  0.00  0.00  1.00  0.00  0.00  0.00  0.60  0.00
  YS02001762YS02001759    1.00   0.00  0.00  0.00  1.00  0.00  0.00  0.00  0.04  0.00
  YS02001765YS02001762    1.00   0.00  0.00  0.00  1.00  0.00  0.00  0.00  0.71  0.00
  YS02001767YS02001765    1.00   0.00  0.00  0.00  1.00  0.00  0.00  0.00  0.00  0.00
  YS02001770YS02001767    1.00   0.00  0.00  0.00  1.00  0.00  0.00  0.00  0.00  0.00
  YS02001774YS02001770    1.00   0.00  0.13  0.00  0.71  0.00  0.15  0.00  0.03  0.00
  YS02001779YS02001774    1.00   0.00  0.00  0.00  1.00  0.00  0.00  0.00  0.77  0.00
  YS02001783YS02001784    1.00   0.00  0.18  0.00  0.82  0.00  0.00  0.00  0.54  0.00
  YS02001784YS02001785    1.00   0.00  0.00  0.00  1.00  0.00  0.00  0.00  0.16  0.00
  YS02001786YS02001788    1.00   0.00  0.00  0.00  0.79  0.21  0.00  0.00  0.00  0.00
  YS02001788YS02001790    1.00   0.00  0.00  0.00  0.21  0.79  0.00  0.00  0.79  0.00
  YS02001790YS02001791    1.00   0.00  0.00  0.00  0.01  0.99  0.00  0.00  0.16  0.00
  YS02001791YS02001793    1.00   0.00  0.00  0.00  0.00  1.00  0.00  0.00  0.01  0.00
  YS02001793JiankangQianchi    1.00   0.00  0.00  0.00  0.43  0.57  0.00  0.00  0.76  0.00
  YS02001882YS02001884    1.00   0.15  0.01  0.00  0.84  0.00  0.00  0.00  0.00  0.00
  YS02001884YS02001887    1.00   0.06  0.05  0.00  0.89  0.00  0.00  0.00  0.00  0.00
  YS02001887YS02001890    1.00   0.00  0.00  0.00  0.97  0.00  0.03  0.00  0.00  0.00
  YS02001890YS02001895    1.00   0.00  0.16  0.00  0.84  0.00  0.00  0.00  0.00  0.00
  YS02001895YS02001898    1.00   0.16  0.00  0.00  0.82  0.00  0.02  0.00  0.00  0.00
  YS02001898YS02001901    1.00   0.16  0.00  0.00  0.84  0.00  0.00  0.00  0.01  0.00
  YS02001901YS02001904    1.00   0.16  0.00  0.00  0.84  0.00  0.00  0.00  0.00  0.00
  YS02001904YS02001907    1.00   0.00  0.16  0.00  0.84  0.00  0.00  0.00  0.00  0.00
  YS02001907YS02006553    1.00   0.00  0.02  0.00  0.98  0.00  0.00  0.00  0.00  0.00
  YS02001910YS02001907    1.00   0.00  0.00  0.00  0.97  0.00  0.00  0.03  0.12  0.00
  YS02001915YS02001910    1.00   0.00  0.00  0.00  0.97  0.03  0.00  0.00  0.15  0.00
  YS02001918YS02001915    1.00   0.00  0.01  0.00  0.98  0.02  0.00  0.00  0.73  0.00
  YS02001920YS02001918    1.00   0.00  0.01  0.00  0.99  0.00  0.00  0.00  0.00  0.00
  YS02001923YS02001920    1.00   0.00  0.00  0.00  1.00  0.00  0.00  0.00  0.91  0.00
  YS02001926YS02001923    1.00   0.00  0.07  0.00  0.07  0.00  0.85  0.00  0.00  0.00
  YS02001929YS02001926    1.00   0.00  0.13  0.00  0.87  0.00  0.00  0.00  0.81  0.00
  YS02006553YS02006556    1.00   0.01  0.00  0.00  0.99  0.00  0.00  0.00  0.03  0.00
  YS02006556YS02006558    1.00   0.00  0.00  0.00  1.00  0.00  0.00  0.00  0.00  0.00
  YS02006558YS02006561    1.00   0.17  0.00  0.00  0.07  0.76  0.00  0.00  0.18  0.00
  YS02006561YS02001783    1.00   0.18  0.00  0.00  0.11  0.72  0.00  0.00  0.67  0.00
  YS02163301YS02001633    1.00   0.00  0.15  0.00  0.85  0.00  0.00  0.00  0.00  0.00
  YS02163601YS02164001    1.00   0.00  0.08  0.00  0.92  0.00  0.00  0.00  0.00  0.00
  YS02164001YS02001641    1.00   0.01  0.08  0.00  0.92  0.00  0.00  0.00  0.05  0.00
  
  
  *************************
  Conduit Surcharge Summary
  *************************
  
  ----------------------------------------------------------------------------
                                                           Hours        Hours 
                         --------- Hours Full --------   Above Full   Capacity
  Conduit                Both Ends  Upstream  Dnstream   Normal Flow   Limited
  ----------------------------------------------------------------------------
  WS02003072WS02003073        0.01      0.01      0.01      0.82         0.01
  WS02004404WS02004405        0.01      0.01      0.01      2.52         0.01
  WS02006109WS02006110        0.01      0.01      1.84      0.01         0.01
  WS02006110WS02006113        0.01      0.01      1.81      0.01         0.01
  WS02006111WS02006112        0.01      0.01      1.89      0.01         0.01
  WS02006112WS02006115        0.01      0.01      0.54      0.01         0.01
  WS02006228WS02006109        1.76      1.85      1.76      2.12         1.76
  WS02006229WS02006228        1.74      1.77      1.74      2.02         1.74
  WS02006230WS02006229        1.92      1.96      1.92      2.86         1.92
  WS02006231WS02006230        0.01      0.01      0.30      2.61         0.01
  WS02006232WS02006231        0.12      0.12      1.85      0.30         0.01
  WS02006234WS02006232        1.47      1.47      1.85      0.13         0.36
  WS02006235WS02006234        0.76      0.83      1.58      2.47         0.21
  WS02006238WS02006235        1.74      1.74      1.88      0.01         0.10
  WS02006239WS02006238        1.81      1.87      1.81      2.02         1.46
  WS02006240WS02006239        1.71      1.80      1.71      2.02         1.44
  WS02006242WS02006240        1.76      1.76      1.94      2.12         0.05
  WS02006243WS02006242        1.81      1.81      1.90      0.01         0.31
  WS02006245WS02006243        1.80      1.81      1.80      2.11         1.46
  WS02006247WS02006245        1.80      1.84      1.80      2.24         1.64
  WS02006248WS02006247        1.80      1.80      1.82      0.01         0.47
  WS02006249WS02006248        1.79      1.79      1.81      2.23         0.01
  WS02006251WS02006249        1.81      1.82      1.81      2.20         1.38
  WS02006252WS02006251        2.24      2.24      2.24      2.24         0.01
  WS02006256WS02006235        2.09      2.53      4.11      0.52         0.10
  YS02001580YS02001583        0.74      0.74      0.76      0.01         0.01
  YS02001583YS02001586        0.74      0.74      0.84      0.01         0.01
  YS02001586YS02001590        0.85      0.85      0.92      0.01         0.01
  YS02001590YS02001593        0.92      0.92      0.95      1.00         0.01
  YS02001593YS02001596        0.94      0.94      1.05      0.01         0.01
  YS02001596YS02001600        1.11      1.11      1.23      0.01         0.01
  YS02001600YS02001601        1.29      1.29      1.56      0.01         0.01
  YS02001601YS02001602        1.45      1.45      1.60      1.26         0.01
  YS02001602YS02001605        1.40      1.40      1.45      2.41         0.01
  YS02001605YS02001607        1.35      1.40      1.35      1.52         1.35
  YS02001607YS02001610        0.85      0.85      0.88      0.01         0.01
  YS02001610YS02001613        0.84      0.84      0.88      0.01         0.01
  YS02001613YS02001616        0.79      0.79      0.84      0.01         0.01
  YS02001616YS02001619        0.78      0.78      0.79      0.06         0.06
  YS02001619YS02001622        0.77      0.78      0.77      0.98         0.75
  YS02001622YS02001625        0.77      0.77      0.99      0.01         0.01
  YS02001625YS02001629        0.68      0.68      0.99      0.01         0.01
  YS02001629YS02163301        0.96      0.96      0.97      0.43         0.40
  YS02001633YS02163601        0.99      0.99      1.03      0.56         0.55
  YS02001641YS02001644        0.79      0.86      0.79      1.63         0.78
  YS02001644YS02001647        0.52      0.52      0.79      0.04         0.01
  YS02001647YS02001649        0.52      0.52      0.58      0.01         0.01
  YS02001649YS02001757        0.57      0.58      0.58      0.48         0.39
  YS02001652YS02001649        0.42      0.42      0.58      0.01         0.01
  YS02001655YS02001652        0.33      0.33      0.40      0.01         0.01
  YS02001658YS02001655        0.24      0.24      0.33      0.01         0.01
  YS02001661YS02001658        0.08      0.08      0.24      0.01         0.01
  YS02001664YS02001661        0.01      0.01      0.13      0.01         0.01
  YS02001745YS02001748        0.01      0.01      0.15      0.01         0.01
  YS02001748YS02001751        0.21      0.21      0.26      0.01         0.01
  YS02001751YS02001754        0.26      0.26      0.32      0.01         0.01
  YS02001754YS02001757        0.34      0.34      0.58      0.01         0.01
  YS02001757CaochengTiaoxuchi        0.14      0.58      0.56      0.59         0.09
  YS02001759YS02001757        0.50      0.50      0.58      0.10         0.12
  YS02001762YS02001759        0.47      0.47      0.50      0.01         0.03
  YS02001765YS02001762        0.43      0.43      0.47      0.01         0.01
  YS02001767YS02001765        0.40      0.40      0.43      0.02         0.05
  YS02001770YS02001767        0.40      0.42      0.40      0.68         0.40
  YS02001774YS02001770        0.40      0.40      0.47      0.01         0.01
  YS02001779YS02001774        0.34      0.34      0.47      0.01         0.01
  YS02001783YS02001784        0.61      0.64      0.61      0.82         0.61
  YS02001784YS02001785        0.50      0.61      0.50      1.09         0.50
  YS02001786YS02001788        0.01      0.50      0.01      0.94         0.01
  YS02001790YS02001791        0.01      0.01      0.01      0.60         0.01
  YS02001882YS02001884        0.58      0.58      0.59      0.01         0.01
  YS02001884YS02001887        0.62      0.62      0.63      0.01         0.01
  YS02001887YS02001890        0.65      0.65      0.66      0.17         0.01
  YS02001890YS02001895        0.57      0.57      0.68      0.01         0.01
  YS02001895YS02001898        0.56      0.56      0.57      0.01         0.01
  YS02001898YS02001901        0.57      0.57      0.61      0.01         0.01
  YS02001901YS02001904        0.60      0.60      0.61      0.01         0.01
  YS02001904YS02001907        0.60      0.60      0.91      0.01         0.01
  YS02001907YS02006553        1.10      1.10      1.18      0.01         0.01
  YS02001910YS02001907        0.68      0.68      0.90      0.04         0.04
  YS02001915YS02001910        0.58      0.58      0.68      0.01         0.01
  YS02001918YS02001915        0.48      0.48      0.58      0.01         0.01
  YS02001920YS02001918        0.48      0.48      0.50      0.01         0.01
  YS02001923YS02001920        0.44      0.44      0.50      0.01         0.01
  YS02001926YS02001923        0.18      0.18      0.22      0.01         0.01
  YS02001929YS02001926        0.06      0.06      0.22      0.01         0.01
  YS02006553YS02006556        0.78      0.78      0.91      0.01         0.01
  YS02006556YS02006558        0.85      0.85      0.94      0.01         0.01
  YS02006558YS02006561        0.52      0.76      0.52      1.03         0.52
  YS02006561YS02001783        0.45      0.45      0.64      0.01         0.01
  YS02163301YS02001633        0.97      0.97      1.02      0.01         0.02
  YS02163601YS02164001        0.88      0.88      1.03      0.35         0.01
  YS02164001YS02001641        0.86      0.88      0.86      0.84         0.64
  
  
  ***************
  Pumping Summary
  ***************
  
  ---------------------------------------------------------------------------------------------------------
                                                  Min       Avg       Max     Total     Power    % Time Off
                        Percent   Number of      Flow      Flow      Flow    Volume     Usage    Pump Curve
  Pump                 Utilized   Start-Ups       LPS       LPS       LPS  10^6 ltr     Kw-hr    Low   High
  ---------------------------------------------------------------------------------------------------------
  CC-R1                   28.35           4      0.00    683.00    683.00     5.518     91.99    0.0   75.1
  CC-R2                   28.35           4      0.00    683.00    683.00     5.518     91.99    0.0   75.1
  CC-S1                   28.35           4      0.00    200.00    200.00     1.616     11.96    0.0   29.4
  CC-S2                   28.35           4      0.00    200.00    200.00     1.616     11.96    0.0   29.4
  JK-R1                    7.39         300      0.00   1000.00   1000.00     2.107      5.65    0.0    0.0
  JK-R2                    7.39         300      0.00   1000.00   1000.00     2.107      5.65    0.0    0.0
  JK-S                     7.39         300      0.00    300.00    300.00     0.632     14.28    0.0    0.0
  

  Analysis begun on:  Tue Apr 22 10:15:31 2025
  Analysis ended on:  Tue Apr 22 10:15:32 2025
  Total elapsed time: 00:00:01