
  EPA STORM WATER MANAGEMENT MODEL - VERSION 5.2 (Build 5.2.4)
  PYSWMM TOOLKIT API - VERSION v1.0 (2023-11-27)
  ------------------------------------------------------------

  WARNING 04: minimum elevation drop used for Conduit WS02004404WS02004405
  WARNING 03: negative offset ignored for Link YS02001904YS02001907
  
  ****************
  Analysis Options
  ****************
  Flow Units ............... LPS
  Process Models:
    Rainfall/Runoff ........ YES
    RDII ................... NO
    Snowmelt ............... NO
    Groundwater ............ NO
    Flow Routing ........... YES
    Ponding Allowed ........ NO
    Water Quality .......... NO
  Infiltration Method ...... HORTON
  Flow Routing Method ...... DYNWAVE
  Surcharge Method ......... EXTRAN
  Starting Date ............ 08/28/2015 08:00:00
  Ending Date .............. 08/28/2015 16:00:00
  Antecedent Dry Days ...... 8.0
  Report Time Step ......... 00:01:00
  Wet Time Step ............ 00:01:00
  Dry Time Step ............ 00:01:00
  Routing Time Step ........ 30.00 sec
  Variable Time Step ....... YES
  Maximum Trials ........... 8
  Number of Threads ........ 4
  Head Tolerance ........... 0.001500 m
  
  
  **************************        Volume         Depth
  Runoff Quantity Continuity     hectare-m            mm
  **************************     ---------       -------
  Total Precipitation ......         5.618       169.381
  Evaporation Loss .........         0.000         0.000
  Infiltration Loss ........         0.112         3.371
  Surface Runoff ...........         5.475       165.053
  Final Storage ............         0.033         1.004
  Continuity Error (%) .....        -0.027
  
  
  **************************        Volume        Volume
  Flow Routing Continuity        hectare-m      10^6 ltr
  **************************     ---------     ---------
  Dry Weather Inflow .......         0.025         0.248
  Wet Weather Inflow .......         5.473        54.730
  Groundwater Inflow .......         0.000         0.000
  RDII Inflow ..............         0.000         0.000
  External Inflow ..........         0.083         0.825
  External Outflow .........         3.249        32.489
  Flooding Loss ............         2.516        25.159
  Evaporation Loss .........         0.000         0.000
  Exfiltration Loss ........         0.000         0.000
  Initial Stored Volume ....         0.243         2.431
  Final Stored Volume ......         0.081         0.814
  Continuity Error (%) .....        -0.393
  
  
  *************************
  Highest Continuity Errors
  *************************
  Node YS02001583 (-17.33%)
  Node WS02006256 (-11.50%)
  Node YS02001884 (4.85%)
  
  
  ***************************
  Time-Step Critical Elements
  ***************************
  Link YS02001793JiankangQianchi (38.14%)
  Link WS02004404WS02004405 (13.57%)
  Link WS02006238WS02006235 (13.34%)
  Link WS02006235WS02006234 (12.25%)
  Link WS02003066WSF200 (10.76%)
  
  
  ********************************
  Highest Flow Instability Indexes
  ********************************
  Link WS02006229WS02006228 (61)
  Link YS02001602YS02001605 (56)
  Link YS02001605YS02001607 (49)
  Link YS02001607YS02001610 (47)
  Link WS02006113WS02006111 (46)
  
  
  *********************************
  Most Frequent Nonconverging Nodes
  *********************************
  Node CC-1 (53.56%)
  Node CC-2 (53.56%)
  Node JK-1 (53.56%)
  Node JK-2 (53.56%)
  Node WSC (53.56%)
  
  
  *************************
  Routing Time Step Summary
  *************************
  Minimum Time Step           :     0.01 sec
  Average Time Step           :     2.44 sec
  Maximum Time Step           :     6.43 sec
  % of Time in Steady State   :     0.00
  Average Iterations per Step :     5.43
  % of Steps Not Converging   :    53.56
  Time Step Frequencies       :
     30.000 - 13.228 sec      :     0.00 %
     13.228 -  5.833 sec      :    12.74 %
      5.833 -  2.572 sec      :    19.09 %
      2.572 -  1.134 sec      :    54.65 %
      1.134 -  0.500 sec      :    13.52 %
  
  
  ***************************
  Subcatchment Runoff Summary
  ***************************
  
  ------------------------------------------------------------------------------------------------------------------------------
                            Total      Total      Total      Total     Imperv       Perv      Total       Total     Peak  Runoff
                           Precip      Runon       Evap      Infil     Runoff     Runoff     Runoff      Runoff   Runoff   Coeff
  Subcatchment                 mm         mm         mm         mm         mm         mm         mm    10^6 ltr      LPS
  ------------------------------------------------------------------------------------------------------------------------------
  sub60                    169.38       0.00       0.00       1.98     147.90      18.35     166.25        2.18   424.10   0.981
  sub61                    169.38       0.00       0.00       2.89     139.50      25.91     165.41        3.04   589.69   0.977
  sub62                    169.38       0.00       0.00       1.32     154.57      12.23     166.81        4.57   853.87   0.985
  sub63                    169.38       0.00       0.00       5.39     119.33      43.74     163.06        3.70   694.41   0.963
  sub64                    169.38       0.00       0.00       2.72     142.79      22.69     165.48        3.97   722.02   0.977
  sub65                    169.38       0.00       0.00       2.35     146.12      19.67     165.79        4.56   817.55   0.979
  sub66                    169.38       0.00       0.00       6.71     119.18      42.41     161.60        7.54  1232.80   0.954
  sub67                    169.38       0.00       0.00       1.25     154.65      12.31     166.95        3.11   640.21   0.986
  sub68                    169.38       0.00       0.00       2.40     144.52      21.32     165.84        4.56   867.49   0.979
  sub69                    169.38       0.00       0.00       2.22     143.88      23.19     167.07        6.18  1091.59   0.986
  sub70                    169.38       0.00       0.00       7.40     111.62      50.20     161.82        4.67   746.10   0.955
  sub71                    169.38       0.00       0.00       1.36     154.52      12.19     166.71        4.36   783.64   0.984
  sub72                    169.38       0.00       0.00       1.22     156.12      10.64     166.77        2.29   395.64   0.985
  
  
  ******************
  Node Depth Summary
  ******************
  
  ---------------------------------------------------------------------------------
                                 Average  Maximum  Maximum  Time of Max    Reported
                                   Depth    Depth      HGL   Occurrence   Max Depth
  Node                 Type       Meters   Meters   Meters  days hr:min      Meters
  ---------------------------------------------------------------------------------
  WS02003060           JUNCTION     0.26     0.36     5.30     0  02:43        0.36
  WS02003066           JUNCTION     0.21     0.29     5.84     0  02:42        0.29
  WS02003067           JUNCTION     0.53     0.68     6.00     0  02:42        0.68
  WS02003069           JUNCTION     0.29     0.41     4.99     0  02:43        0.41
  WS02003072           JUNCTION     0.36     0.48     4.85     0  02:44        0.48
  WS02003073           JUNCTION     0.20     0.28     4.35     0  02:45        0.28
  WS02004401           JUNCTION     0.64     0.81     6.81     0  02:37        0.81
  WS02004402           JUNCTION     0.67     0.84     6.80     0  02:37        0.84
  WS02004403           JUNCTION     0.69     0.86     6.79     0  02:37        0.86
  WS02004404           JUNCTION     0.76     0.93     6.78     0  02:37        0.93
  WS02004405           JUNCTION     0.76     0.93     6.78     0  02:37        0.92
  WS02004406           JUNCTION     0.77     0.93     6.76     0  02:37        0.93
  WS02004407           JUNCTION     0.20     0.28     6.59     0  02:38        0.28
  WS02004409           JUNCTION     0.45     0.63     6.40     0  02:41        0.63
  WS02004410           JUNCTION     0.47     0.65     6.37     0  02:41        0.65
  WS02004411           JUNCTION     0.49     0.66     6.34     0  02:41        0.66
  WS02004412           JUNCTION     0.50     0.67     6.31     0  02:42        0.67
  WS02004413           JUNCTION     0.66     0.83     6.30     0  02:42        0.83
  WS02006109           JUNCTION     0.73     0.93     7.54     0  02:03        0.92
  WS02006110           JUNCTION     0.72     0.89     7.48     0  02:03        0.89
  WS02006111           JUNCTION     0.20     0.27     6.98     0  01:22        0.27
  WS02006112           JUNCTION     0.81     1.00     6.88     0  02:36        1.00
  WS02006113           JUNCTION     0.32     0.43     7.33     0  02:04        0.43
  WS02006115           JUNCTION     0.54     0.71     6.85     0  02:36        0.71
  WS02006116           JUNCTION     0.62     0.79     6.83     0  02:36        0.79
  WS02006228           JUNCTION     0.74     0.96     7.62     0  01:21        0.95
  WS02006229           JUNCTION     0.72     0.96     7.65     0  01:21        0.94
  WS02006230           JUNCTION     0.74     1.03     7.78     0  01:21        1.01
  WS02006231           JUNCTION     0.51     2.03     9.15     0  01:21        2.03
  WS02006232           JUNCTION     0.65     1.82     8.86     0  02:03        1.82
  WS02006234           JUNCTION     0.61     1.96     9.12     0  01:23        1.96
  WS02006235           JUNCTION     0.66     2.00     9.16     0  02:26        2.00
  WS02006238           JUNCTION     0.69     2.15     9.29     0  02:26        2.15
  WS02006239           JUNCTION     0.67     2.03     9.24     0  01:23        2.03
  WS02006240           JUNCTION     0.66     2.10     9.39     0  01:23        2.10
  WS02006242           JUNCTION     0.74     1.55     8.82     0  01:18        1.55
  WS02006243           JUNCTION     0.67     1.48     8.90     0  01:22        1.48
  WS02006245           JUNCTION     0.68     1.56     9.04     0  01:33        1.56
  WS02006247           JUNCTION     0.71     1.47     8.97     0  01:33        1.47
  WS02006248           JUNCTION     0.68     1.10     8.69     0  01:16        1.10
  WS02006249           JUNCTION     0.71     1.09     8.69     0  01:16        1.09
  WS02006251           JUNCTION     0.72     1.22     8.89     0  01:40        1.19
  WS02006252           JUNCTION     0.45     1.50     9.74     0  00:00        0.83
  WS02006256           JUNCTION     1.10     2.35     9.28     0  00:00        2.35
  WSF200               JUNCTION     0.19     0.28     5.51     0  02:42        0.28
  YS02001580           JUNCTION     0.37     1.05     9.59     0  01:06        0.79
  YS02001583           JUNCTION     0.41     1.14     9.64     0  01:06        1.14
  YS02001586           JUNCTION     0.59     1.13     9.30     0  01:05        1.13
  YS02001590           JUNCTION     0.74     1.40     9.26     0  01:06        1.40
  YS02001593           JUNCTION     0.67     1.35     9.21     0  01:06        1.32
  YS02001596           JUNCTION     0.86     1.80     9.22     0  01:33        1.80
  YS02001600           JUNCTION     0.98     1.87     9.00     0  01:05        1.87
  YS02001601           JUNCTION     1.17     2.06     8.90     0  01:05        2.06
  YS02001602           JUNCTION     1.04     1.87     8.77     0  01:07        1.87
  YS02001605           JUNCTION     0.99     1.78     8.68     0  01:07        1.78
  YS02001607           JUNCTION     0.93     1.68     8.53     0  01:07        1.68
  YS02001610           JUNCTION     0.97     1.68     8.48     0  01:07        1.68
  YS02001613           JUNCTION     0.93     1.70     8.54     0  01:07        1.70
  YS02001616           JUNCTION     0.87     1.61     8.52     0  01:07        1.61
  YS02001619           JUNCTION     0.85     1.61     8.54     0  01:07        1.61
  YS02001622           JUNCTION     0.84     1.62     8.52     0  01:07        1.59
  YS02001625           JUNCTION     1.07     1.78     8.38     0  01:07        1.78
  YS02001629           JUNCTION     1.03     1.85     8.40     0  01:07        1.85
  YS02001633           JUNCTION     1.11     2.08     8.53     0  01:09        2.08
  YS02001641           JUNCTION     1.08     2.01     8.45     0  01:09        2.01
  YS02001644           JUNCTION     1.07     1.92     8.35     0  01:07        1.92
  YS02001647           JUNCTION     0.87     1.81     8.42     0  02:35        1.81
  YS02001649           JUNCTION     0.98     2.05     8.44     0  02:35        2.05
  YS02001652           JUNCTION     0.84     2.16     8.76     0  02:35        2.16
  YS02001655           JUNCTION     0.70     2.20     9.05     0  01:09        1.95
  YS02001658           JUNCTION     0.53     1.83     8.97     0  01:09        1.57
  YS02001661           JUNCTION     0.43     1.72     9.12     0  01:10        1.06
  YS02001664           JUNCTION     0.16     0.66     8.59     0  01:10        0.52
  YS02001745           JUNCTION     0.30     1.27     8.78     0  01:10        0.90
  YS02001748           JUNCTION     0.51     2.27     9.35     0  01:09        1.69
  YS02001751           JUNCTION     0.62     2.07     8.95     0  01:09        1.97
  YS02001754           JUNCTION     0.78     2.20     8.81     0  01:33        2.17
  YS02001757           JUNCTION     1.01     2.20     8.46     0  02:35        2.20
  YS02001759           JUNCTION     0.96     2.19     8.56     0  02:35        2.19
  YS02001762           JUNCTION     0.94     2.15     8.55     0  02:35        2.15
  YS02001765           JUNCTION     0.92     2.10     8.55     0  02:35        2.10
  YS02001767           JUNCTION     0.90     2.02     8.51     0  01:10        2.01
  YS02001770           JUNCTION     0.92     1.95     8.44     0  01:08        1.95
  YS02001774           JUNCTION     0.98     2.05     8.47     0  01:08        2.01
  YS02001779           JUNCTION     0.78     1.68     8.37     0  01:08        1.68
  YS02001783           JUNCTION     0.62     1.32     7.46     0  01:33        1.32
  YS02001784           JUNCTION     0.58     1.16     7.23     0  02:50        1.16
  YS02001786           JUNCTION     0.46     1.00     7.03     0  01:07        0.87
  YS02001788           JUNCTION     0.33     0.62     6.60     0  01:10        0.62
  YS02001790           JUNCTION     0.38     0.72     6.37     0  01:11        0.72
  YS02001791           JUNCTION     0.23     0.44     5.91     0  01:42        0.44
  YS02001793           JUNCTION     0.12     0.25     5.08     0  02:25        0.24
  YS02001882           JUNCTION     0.80     1.83     8.55     0  01:07        1.79
  YS02001884           JUNCTION     0.89     1.93     8.55     0  01:07        1.93
  YS02001887           JUNCTION     0.97     2.00     8.54     0  01:33        2.00
  YS02001890           JUNCTION     0.99     1.81     8.32     0  01:07        1.81
  YS02001895           JUNCTION     0.77     1.75     8.50     0  01:07        1.75
  YS02001898           JUNCTION     0.77     1.77     8.51     0  01:07        1.59
  YS02001901           JUNCTION     0.88     1.80     8.41     0  01:07        1.70
  YS02001904           JUNCTION     0.86     1.85     8.48     0  01:33        1.85
  YS02001907           JUNCTION     1.16     1.96     8.25     0  01:07        1.96
  YS02001910           JUNCTION     0.99     2.10     8.61     0  01:33        2.10
  YS02001915           JUNCTION     0.82     2.00     8.72     0  01:07        2.00
  YS02001918           JUNCTION     0.62     1.81     8.88     0  01:07        1.58
  YS02001920           JUNCTION     0.69     2.14     9.15     0  01:07        1.69
  YS02001923           JUNCTION     0.52     2.03     9.29     0  01:08        1.48
  YS02001926           JUNCTION     0.46     1.90     9.35     0  01:08        1.30
  YS02001929           JUNCTION     0.32     1.78     9.47     0  01:08        1.05
  YS02006553           JUNCTION     1.16     2.19     8.47     0  01:33        2.19
  YS02006556           JUNCTION     1.13     2.29     8.60     0  01:33        2.29
  YS02006558           JUNCTION     1.17     2.50     8.77     0  01:33        2.50
  YS02006561           JUNCTION     0.43     1.01     7.67     0  01:33        0.89
  YS02163301           JUNCTION     1.06     1.95     8.47     0  01:09        1.95
  YS02163601           JUNCTION     1.14     2.08     8.48     0  01:08        2.08
  YS02164001           JUNCTION     1.07     2.04     8.50     0  01:09        2.04
  CC-1                 OUTFALL      0.00     0.00     0.00     0  00:00        0.00
  CC-2                 OUTFALL      0.00     0.00     0.00     0  00:00        0.00
  JK-1                 OUTFALL      0.00     0.00     0.00     0  00:00        0.00
  JK-2                 OUTFALL      0.00     0.00     0.00     0  00:00        0.00
  WSC                  OUTFALL      0.20     0.28     0.95     0  02:45        0.28
  CC-storage           STORAGE      1.05     2.25     7.75     0  03:02        2.25
  JK-storage           STORAGE      0.12     2.99     3.79     0  00:00        0.68
  
  
  *******************
  Node Inflow Summary
  *******************
  
  -------------------------------------------------------------------------------------------------
                                  Maximum  Maximum                  Lateral       Total        Flow
                                  Lateral    Total  Time of Max      Inflow      Inflow     Balance
                                   Inflow   Inflow   Occurrence      Volume      Volume       Error
  Node                 Type           LPS      LPS  days hr:min    10^6 ltr    10^6 ltr     Percent
  -------------------------------------------------------------------------------------------------
  WS02003060           JUNCTION     16.53   503.61     0  02:43       0.471        6.51       0.028
  WS02003066           JUNCTION      0.00   487.14     0  02:42           0        6.04       0.022
  WS02003067           JUNCTION      0.00   487.12     0  02:42           0        6.04       0.065
  WS02003069           JUNCTION      0.32   504.11     0  02:43     0.00912        6.52       0.054
  WS02003072           JUNCTION      0.00   503.86     0  02:44           0        6.51       0.101
  WS02003073           JUNCTION      1.82   505.35     0  02:44      0.0519        6.56       0.075
  WS02004401           JUNCTION      0.00   491.56     0  02:37           0        6.14       0.163
  WS02004402           JUNCTION      0.00   490.87     0  02:37           0        6.13       0.165
  WS02004403           JUNCTION      0.00   490.09     0  02:37           0        6.12       0.162
  WS02004404           JUNCTION      0.16   489.72     0  02:05     0.00462        6.12       0.138
  WS02004405           JUNCTION      0.04   489.65     0  02:37     0.00109        6.11       0.197
  WS02004406           JUNCTION      0.00   490.02     0  02:37           0         6.1       0.338
  WS02004407           JUNCTION      0.00   488.96     0  02:38           0        6.08       0.013
  WS02004409           JUNCTION      0.00   488.49     0  02:38           0        6.08       0.036
  WS02004410           JUNCTION      0.00   488.01     0  02:38           0        6.07       0.067
  WS02004411           JUNCTION      0.00   487.81     0  02:41           0        6.07       0.085
  WS02004412           JUNCTION      0.00   487.80     0  02:41           0        6.06       0.115
  WS02004413           JUNCTION      0.00   487.38     0  02:42           0        6.06       0.216
  WS02006109           JUNCTION      1.23   496.25     0  01:21      0.0351        6.19       0.131
  WS02006110           JUNCTION      0.00   496.43     0  01:21           0        6.18       0.103
  WS02006111           JUNCTION      0.00   509.91     0  02:36           0        6.17       0.012
  WS02006112           JUNCTION      0.00   494.84     0  01:22           0        6.17       0.326
  WS02006113           JUNCTION      0.00   494.52     0  02:03           0        6.17       0.027
  WS02006115           JUNCTION      0.00   493.05     0  02:36           0        6.15       0.110
  WS02006116           JUNCTION      0.00   492.07     0  02:36           0        6.14       0.009
  WS02006228           JUNCTION      0.00   495.48     0  01:21           0        6.15       0.039
  WS02006229           JUNCTION      0.00   494.69     0  01:21           0        6.16       0.074
  WS02006230           JUNCTION     10.28   560.69     0  01:21       0.293        6.16       0.075
  WS02006231           JUNCTION      0.00   556.89     0  01:29           0        5.87      -0.074
  WS02006232           JUNCTION      0.00   551.52     0  01:29           0        5.87       0.154
  WS02006234           JUNCTION      0.00   539.78     0  01:16           0        5.86      -0.304
  WS02006235           JUNCTION      0.00   557.41     0  01:13           0        5.87      -0.318
  WS02006238           JUNCTION      0.00   424.53     0  01:52           0        5.25       0.125
  WS02006239           JUNCTION      0.00   420.75     0  03:07           0        5.21      -0.111
  WS02006240           JUNCTION      0.00   417.75     0  02:59           0         5.2      -0.025
  WS02006242           JUNCTION      0.00   418.22     0  02:45           0        5.19      -0.091
  WS02006243           JUNCTION      0.00   419.07     0  02:59           0        5.18      -0.072
  WS02006245           JUNCTION      0.00   419.49     0  02:45           0        5.19       0.161
  WS02006247           JUNCTION      0.00   418.81     0  02:45           0        5.19      -0.009
  WS02006248           JUNCTION      0.00   420.13     0  03:09           0        5.22       0.050
  WS02006249           JUNCTION      0.00   487.28     0  01:08           0        5.24       0.142
  WS02006251           JUNCTION      0.08   406.89     0  01:07     0.00219        5.24      -0.029
  WS02006252           JUNCTION      0.00   400.00     0  00:00           0        5.24      -0.000
  WS02006256           JUNCTION      0.00   323.82     0  03:07           0        1.21     -10.311
  WSF200               JUNCTION      0.00   487.12     0  02:42           0        6.04       0.005
  YS02001580           JUNCTION      0.00   267.34     0  01:06           0     0.00438      -6.080
  YS02001583           JUNCTION      0.00   293.27     0  01:05           0      0.0146     -14.770
  YS02001586           JUNCTION    746.10   746.19     0  02:21        4.67        4.69       0.044
  YS02001590           JUNCTION      0.00   318.60     0  02:31           0        2.77      -0.022
  YS02001593           JUNCTION      0.00   318.47     0  02:31           0        2.77       0.003
  YS02001596           JUNCTION      0.00   317.96     0  02:55           0        2.77      -0.009
  YS02001600           JUNCTION      0.00   318.61     0  01:33           0        2.78       0.035
  YS02001601           JUNCTION   1091.59  1409.06     0  01:41        6.18        8.96       0.012
  YS02001602           JUNCTION      0.00   618.85     0  01:06           0         3.7       0.016
  YS02001605           JUNCTION      0.00   618.58     0  01:06           0        3.26       0.029
  YS02001607           JUNCTION      0.00   618.17     0  01:06           0        3.26       0.029
  YS02001610           JUNCTION      0.00   688.70     0  01:06           0        4.33       0.054
  YS02001613           JUNCTION      0.00   615.03     0  01:06           0        2.18       0.048
  YS02001616           JUNCTION      0.00   577.59     0  01:06           0         2.2      -0.027
  YS02001619           JUNCTION   1232.80  1232.80     0  02:21        7.53        8.65      -0.006
  YS02001622           JUNCTION      0.00  1002.10     0  01:06           0        7.56      -0.006
  YS02001625           JUNCTION      0.00  1218.03     0  01:41           0        8.51       0.074
  YS02001629           JUNCTION      0.00   983.92     0  01:29           0        3.42       0.070
  YS02001633           JUNCTION    817.75  1389.64     0  01:30        4.57        7.02       0.041
  YS02001641           JUNCTION      0.00  1389.49     0  01:30           0        6.07       0.048
  YS02001644           JUNCTION    722.05  1868.29     0  01:08        3.97          10       0.028
  YS02001647           JUNCTION      0.00  1875.76     0  01:08           0        8.31       0.010
  YS02001649           JUNCTION      0.00  2169.55     0  01:08           0          12       0.004
  YS02001652           JUNCTION      0.00   816.58     0  01:11           0        3.72      -0.122
  YS02001655           JUNCTION      0.15   862.30     0  01:09     0.00439        3.72       0.081
  YS02001658           JUNCTION      0.00   815.04     0  01:11           0        3.71       0.008
  YS02001661           JUNCTION      0.00   868.08     0  02:18           0         3.7      -0.402
  YS02001664           JUNCTION    694.41   694.41     0  01:40         3.7         3.7       0.019
  YS02001745           JUNCTION    424.11   636.43     0  01:09        2.18        2.19       0.118
  YS02001748           JUNCTION      0.04   626.57     0  01:09     0.00128        2.19      -0.216
  YS02001751           JUNCTION      0.01   586.34     0  01:10    0.000313         2.2       0.107
  YS02001754           JUNCTION      0.26   587.51     0  01:10     0.00741        2.21      -0.144
  YS02001757           JUNCTION      0.00  3443.25     0  01:38           0        21.4       0.025
  YS02001759           JUNCTION    589.73  1396.47     0  01:09        3.03        7.12      -0.001
  YS02001762           JUNCTION      0.00   817.93     0  01:09           0        4.09       0.002
  YS02001765           JUNCTION      0.00   818.29     0  01:09           0        4.08       0.014
  YS02001767           JUNCTION      0.54   819.14     0  01:09      0.0152        4.08       0.010
  YS02001770           JUNCTION    854.03   854.03     0  01:40        4.57        4.63      -0.010
  YS02001774           JUNCTION      0.00   501.19     0  01:08           0       0.587       0.272
  YS02001779           JUNCTION      0.01   504.97     0  01:08    0.000142       0.532      -0.271
  YS02001783           JUNCTION      0.00  1158.95     0  01:08           0        9.06       0.002
  YS02001784           JUNCTION      1.06  1160.28     0  01:08      0.0302        9.09       0.006
  YS02001786           JUNCTION      0.06  1160.00     0  01:08      0.0016        9.09       0.009
  YS02001788           JUNCTION      0.07  1160.56     0  01:08     0.00202        9.09       0.003
  YS02001790           JUNCTION      0.15  1181.69     0  01:08     0.00442        9.09      -0.004
  YS02001791           JUNCTION      0.00  1289.49     0  01:12           0        9.09      -0.016
  YS02001793           JUNCTION      0.00  1249.66     0  01:42           0         9.1      -0.045
  YS02001882           JUNCTION      0.00   116.46     0  01:07           0      0.0142       5.444
  YS02001884           JUNCTION      0.00   230.54     0  01:06           0      0.0506       5.092
  YS02001887           JUNCTION    640.66   645.73     0  01:08        3.12        3.15       0.127
  YS02001890           JUNCTION      0.00   647.34     0  01:08           0        3.11       0.165
  YS02001895           JUNCTION      0.00   646.57     0  01:07           0        3.04       0.131
  YS02001898           JUNCTION      0.00   647.72     0  01:07           0        3.04      -0.054
  YS02001901           JUNCTION      0.00   648.23     0  01:07           0        3.05       0.118
  YS02001904           JUNCTION      0.00   649.35     0  01:07           0        3.08       0.092
  YS02001907           JUNCTION      0.00  1696.66     0  01:40           0        9.82       0.187
  YS02001910           JUNCTION      0.00  1180.48     0  01:40           0        6.74       0.105
  YS02001915           JUNCTION    783.66  1180.12     0  01:41        4.36         6.8       0.004
  YS02001918           JUNCTION      0.00   886.37     0  01:07           0        2.48       0.021
  YS02001920           JUNCTION      2.87   781.05     0  01:08      0.0818        2.44       0.016
  YS02001923           JUNCTION      0.04   973.34     0  01:08     0.00107        2.34      -0.061
  YS02001926           JUNCTION      0.05  1251.06     0  01:08     0.00149        2.32      -0.115
  YS02001929           JUNCTION    395.64  1171.10     0  01:08        2.29         2.3      -0.054
  YS02006553           JUNCTION      0.00   811.94     0  03:03           0        4.58       0.266
  YS02006556           JUNCTION      0.00   812.77     0  03:03           0         4.6       0.184
  YS02006558           JUNCTION    868.37  1172.36     0  01:07        4.59        9.13       0.035
  YS02006561           JUNCTION      0.00  1174.43     0  01:07           0        9.06       0.001
  YS02163301           JUNCTION      0.00   983.83     0  01:29           0        3.43       0.052
  YS02163601           JUNCTION      0.11  1389.86     0  01:30     0.00313        6.04       0.083
  YS02164001           JUNCTION      0.00  1389.92     0  01:30           0        6.05       0.039
  CC-1                 OUTFALL       0.00   683.00     0  00:00           0        8.95       0.000
  CC-2                 OUTFALL       0.00   683.00     0  00:00           0        8.95       0.000
  JK-1                 OUTFALL       0.00  1000.00     0  00:00           0        4.02       0.000
  JK-2                 OUTFALL       0.00  1000.00     0  00:00           0        4.02       0.000
  WSC                  OUTFALL       0.00   505.07     0  02:45           0        6.55       0.000
  CC-storage           STORAGE       0.00  3443.89     0  01:38           0        23.6      -0.217
  JK-storage           STORAGE       0.00  1376.89     0  01:42           0        9.25      -0.015
  
  
  **********************
  Node Surcharge Summary
  **********************
  
  Surcharging occurs when water rises above the top of the highest conduit.
  ---------------------------------------------------------------------
                                               Max. Height   Min. Depth
                                   Hours       Above Crown    Below Rim
  Node                 Type      Surcharged         Meters       Meters
  ---------------------------------------------------------------------
  WS02006109           JUNCTION        3.29          0.107        1.713
  WS02006112           JUNCTION        0.01          0.001        1.679
  WS02006228           JUNCTION        3.27          0.135        2.065
  WS02006229           JUNCTION        3.30          0.161        2.289
  WS02006231           JUNCTION        0.44          1.320        0.210
  WS02006232           JUNCTION        3.39          1.124        0.356
  WS02006234           JUNCTION        1.72          1.240        0.000
  WS02006235           JUNCTION        2.99          1.290        0.000
  WS02006238           JUNCTION        3.34          1.430        0.000
  WS02006239           JUNCTION        3.21          1.290        0.000
  WS02006240           JUNCTION        3.31          1.390        0.000
  WS02006242           JUNCTION        3.42          0.820        0.000
  WS02006243           JUNCTION        3.33          0.770        0.000
  WS02006245           JUNCTION        3.32          0.850        0.000
  WS02006247           JUNCTION        3.35          0.760        0.000
  WS02006248           JUNCTION        3.31          0.380        0.000
  WS02006249           JUNCTION        3.33          0.390        0.000
  WS02006251           JUNCTION        1.78          0.194        0.986
  WS02006252           JUNCTION        3.64          1.100        0.000
  WS02006256           JUNCTION        5.27          2.050        0.000
  YS02001580           JUNCTION        2.08          0.450        0.000
  YS02001583           JUNCTION        2.08          0.500        0.000
  YS02001586           JUNCTION        2.17          0.510        0.000
  YS02001590           JUNCTION        2.21          0.750        0.000
  YS02001593           JUNCTION        2.22          0.727        0.113
  YS02001596           JUNCTION        2.27          1.070        0.000
  YS02001600           JUNCTION        2.36          1.190        0.000
  YS02001601           JUNCTION        2.54          1.440        0.000
  YS02001602           JUNCTION        2.49          1.270        0.000
  YS02001605           JUNCTION        2.47          1.180        0.000
  YS02001607           JUNCTION        2.23          0.680        0.000
  YS02001610           JUNCTION        2.24          0.680        0.000
  YS02001613           JUNCTION        2.23          0.700        0.000
  YS02001616           JUNCTION        2.20          0.610        0.000
  YS02001619           JUNCTION        2.19          0.610        0.000
  YS02001622           JUNCTION        2.20          0.620        0.000
  YS02001625           JUNCTION        2.33          0.780        0.000
  YS02001629           JUNCTION        2.17          0.470        0.000
  YS02001633           JUNCTION        2.38          1.060        0.000
  YS02001641           JUNCTION        2.38          1.014        0.086
  YS02001644           JUNCTION        2.38          0.920        0.000
  YS02001647           JUNCTION        2.15          0.811        0.089
  YS02001649           JUNCTION        2.32          1.050        0.000
  YS02001652           JUNCTION        2.04          1.130        0.000
  YS02001655           JUNCTION        1.84          1.200        0.000
  YS02001658           JUNCTION        1.57          0.831        0.469
  YS02001661           JUNCTION        0.08          0.650        0.740
  YS02001745           JUNCTION        0.01          0.267        1.083
  YS02001748           JUNCTION        1.04          1.190        0.000
  YS02001751           JUNCTION        1.74          1.071        0.129
  YS02001754           JUNCTION        1.93          1.150        0.000
  YS02001757           JUNCTION        2.36          1.196        0.014
  YS02001759           JUNCTION        2.24          1.193        0.017
  YS02001762           JUNCTION        2.20          1.150        0.000
  YS02001765           JUNCTION        2.14          1.100        0.000
  YS02001767           JUNCTION        2.10          1.017        0.013
  YS02001770           JUNCTION        2.08          0.920        0.000
  YS02001774           JUNCTION        2.18          1.050        0.000
  YS02001779           JUNCTION        1.93          0.680        0.000
  YS02001783           JUNCTION        2.01          0.520        1.080
  YS02001784           JUNCTION        2.00          0.361        1.129
  YS02001786           JUNCTION        1.94          0.203        1.227
  YS02001882           JUNCTION        1.98          0.830        0.000
  YS02001884           JUNCTION        1.99          0.870        0.000
  YS02001887           JUNCTION        2.01          0.950        0.000
  YS02001890           JUNCTION        2.02          0.760        0.000
  YS02001895           JUNCTION        1.98          0.750        0.000
  YS02001898           JUNCTION        1.97          0.740        0.000
  YS02001901           JUNCTION        2.00          0.805        0.065
  YS02001904           JUNCTION        2.00          0.850        0.000
  YS02001907           JUNCTION        2.10          0.950        0.000
  YS02001910           JUNCTION        2.03          1.100        0.000
  YS02001915           JUNCTION        1.98          1.000        0.000
  YS02001918           JUNCTION        1.87          0.810        0.000
  YS02001920           JUNCTION        1.91          1.140        0.000
  YS02001923           JUNCTION        0.01          0.820        0.000
  YS02001926           JUNCTION        0.10          0.900        0.000
  YS02001929           JUNCTION        0.01          0.780        0.000
  YS02006553           JUNCTION        2.10          1.190        0.000
  YS02006556           JUNCTION        2.07          1.252        0.098
  YS02006558           JUNCTION        2.06          1.400        0.000
  YS02006561           JUNCTION        1.79          0.206        0.944
  YS02163301           JUNCTION        2.36          0.955        0.075
  YS02163601           JUNCTION        2.42          1.080        0.000
  YS02164001           JUNCTION        2.38          1.044        0.056
  
  
  *********************
  Node Flooding Summary
  *********************
  
  Flooding refers to all water that overflows a node, whether it ponds or not.
  --------------------------------------------------------------------------
                                                             Total   Maximum
                                 Maximum   Time of Max       Flood    Ponded
                        Hours       Rate    Occurrence      Volume     Depth
  Node                 Flooded       LPS   days hr:min    10^6 ltr    Meters
  --------------------------------------------------------------------------
  WS02006234              0.01     59.44      0  02:03       0.000     0.000
  WS02006235              0.01     16.70      0  02:26       0.000     0.000
  WS02006238              0.01     13.92      0  02:26       0.000     0.000
  WS02006239              0.01     10.90      0  01:23       0.000     0.000
  WS02006240              0.01     27.16      0  01:25       0.000     0.000
  WS02006242              0.05     36.26      0  01:23       0.001     0.000
  WS02006243              0.01     12.95      0  01:22       0.000     0.000
  WS02006245              0.01      5.21      0  01:33       0.000     0.000
  WS02006247              0.01      4.64      0  02:35       0.000     0.000
  WS02006248              0.51     28.15      0  02:21       0.026     0.000
  WS02006249              0.74     24.49      0  02:35       0.016     0.000
  WS02006252              0.01    245.63      0  00:00       0.000     0.000
  WS02006256              1.12    303.32      0  03:07       0.699     0.000
  YS02001580              0.01    198.14      0  01:06       0.001     0.000
  YS02001583              0.01    224.06      0  01:06       0.001     0.000
  YS02001586              2.02    428.64      0  02:21       1.904     0.000
  YS02001590              0.01     10.41      0  01:06       0.000     0.000
  YS02001596              0.01      0.07      0  01:33       0.000     0.000
  YS02001600              0.01      7.59      0  01:05       0.000     0.000
  YS02001601              2.11   1011.19      0  01:41       5.252     0.000
  YS02001602              2.07     62.10      0  03:05       0.440     0.000
  YS02001605              0.01     10.78      0  01:07       0.000     0.000
  YS02001607              0.01    377.57      0  01:07       0.003     0.000
  YS02001610              1.93    672.65      0  02:21       3.225     0.000
  YS02001613              0.01    238.90      0  01:07       0.001     0.000
  YS02001616              0.01    306.90      0  01:07       0.002     0.000
  YS02001619              0.01    227.97      0  01:07       0.000     0.000
  YS02001622              0.01    212.26      0  01:07       0.000     0.000
  YS02001625              1.89   1217.93      0  01:41       6.050     0.000
  YS02001629              0.13    140.41      0  01:10       0.026     0.000
  YS02001633              0.01      1.74      0  01:09       0.000     0.000
  YS02001644              1.22    682.62      0  02:20       1.688     0.000
  YS02001649              0.01      2.54      0  02:35       0.000     0.000
  YS02001652              0.01      1.15      0  02:35       0.000     0.000
  YS02001655              0.01    470.72      0  01:09       0.001     0.000
  YS02001748              0.01    299.55      0  01:09       0.000     0.000
  YS02001754              0.01    141.84      0  01:33       0.000     0.000
  YS02001762              0.01      1.04      0  02:35       0.000     0.000
  YS02001765              0.01      0.50      0  02:35       0.000     0.000
  YS02001770              0.01     72.13      0  01:08       0.000     0.000
  YS02001774              0.01    102.07      0  01:08       0.000     0.000
  YS02001779              1.08    435.34      0  01:08       0.508     0.000
  YS02001882              0.01    101.22      0  01:07       0.000     0.000
  YS02001884              0.01     47.48      0  01:07       0.000     0.000
  YS02001887              0.01      0.01      0  01:33       0.000     0.000
  YS02001890              0.46    280.30      0  01:07       0.063     0.000
  YS02001895              0.01     69.45      0  01:07       0.000     0.000
  YS02001898              0.01    242.46      0  01:07       0.001     0.000
  YS02001904              0.01      0.81      0  01:33       0.000     0.000
  YS02001907              1.76   1404.99      0  01:40       5.237     0.000
  YS02001910              0.01      0.31      0  01:33       0.000     0.000
  YS02001915              0.01    255.19      0  01:07       0.001     0.000
  YS02001918              0.01    227.72      0  01:08       0.004     0.000
  YS02001920              0.01    454.81      0  01:07       0.001     0.000
  YS02001923              0.01    130.96      0  01:08       0.000     0.000
  YS02001926              0.01    510.76      0  01:08       0.005     0.000
  YS02001929              0.01    977.31      0  01:08       0.003     0.000
  YS02006553              0.01      1.20      0  01:33       0.000     0.000
  YS02006558              0.01      0.41      0  01:33       0.000     0.000
  YS02163601              0.01     10.74      0  01:08       0.000     0.000
  
  
  **********************
  Storage Volume Summary
  **********************
  
  ------------------------------------------------------------------------------------------------
                         Average    Avg   Evap  Exfil     Maximum    Max    Time of Max    Maximum
                          Volume   Pcnt   Pcnt   Pcnt      Volume   Pcnt     Occurrence    Outflow
  Storage Unit           1000 m³   Full   Loss   Loss     1000 m³   Full    days hr:min        LPS
  ------------------------------------------------------------------------------------------------
  CC-storage               2.914   45.5    0.0    0.0       6.276   97.9       0  03:02    1783.53
  JK-storage               0.006    2.1    0.0    0.0       0.150   51.6       0  00:00    2300.00
  
  
  ***********************
  Outfall Loading Summary
  ***********************
  
  -----------------------------------------------------------
                         Flow       Avg       Max       Total
                         Freq      Flow      Flow      Volume
  Outfall Node           Pcnt       LPS       LPS    10^6 ltr
  -----------------------------------------------------------
  CC-1                  71.67    683.00    683.00       8.947
  CC-2                  71.67    683.00    683.00       8.947
  JK-1                  26.14   1000.00   1000.00       4.021
  JK-2                  26.14   1000.00   1000.00       4.021
  WSC                   99.95    317.60    505.07       6.554
  -----------------------------------------------------------
  System                59.11   3683.60   3871.07      32.489
  
  
  ********************
  Link Flow Summary
  ********************
  
  -----------------------------------------------------------------------------
                                 Maximum  Time of Max   Maximum    Max/    Max/
                                  |Flow|   Occurrence   |Veloc|    Full    Full
  Link                 Type          LPS  days hr:min     m/sec    Flow   Depth
  -----------------------------------------------------------------------------
  1                    CONDUIT    505.07     0  02:45      2.75    0.18    0.28
  WS02003060WS02003069 CONDUIT    503.79     0  02:43      1.60    0.20    0.32
  WS02003066WSF200     CONDUIT    487.12     0  02:42      2.78    0.08    0.21
  WS02003067WS02003066 CONDUIT    487.14     0  02:42      1.14    0.16    0.40
  WS02003069WS02003072 CONDUIT    503.86     0  02:44      1.33    0.24    0.37
  WS02003072WS02003073 CONDUIT    503.53     0  02:44      1.39    1.09    0.36
  WS02004401WS02004402 CONDUIT    490.87     0  02:37      1.22    0.59    0.83
  WS02004402WS02004403 CONDUIT    490.09     0  02:37      1.24    0.70    0.85
  WS02004403WS02004404 CONDUIT    489.56     0  02:05      1.24    0.35    0.89
  WS02004404WS02004405 CONDUIT    489.61     0  02:37      1.45    4.80    0.93
  WS02004405WS02004406 CONDUIT    490.02     0  02:37      1.46    0.97    0.93
  WS02004406WS02004407 CONDUIT    488.96     0  02:38      0.98    0.22    0.61
  WS02004407WS02004409 CONDUIT    488.49     0  02:38      1.59    0.17    0.46
  WS02004409WS02004410 CONDUIT    488.01     0  02:38      1.06    0.63    0.64
  WS02004410WS02004411 CONDUIT    487.81     0  02:41      1.13    0.67    0.65
  WS02004411WS02004412 CONDUIT    487.80     0  02:41      1.20    0.69    0.66
  WS02004412WS02004413 CONDUIT    487.38     0  02:42      1.22    0.33    0.75
  WS02004413WS02003067 CONDUIT    487.12     0  02:42      1.05    0.21    0.57
  WS02006109WS02006110 CONDUIT    496.43     0  01:21      0.99    0.95    0.99
  WS02006110WS02006113 CONDUIT    494.52     0  02:03      1.19    0.45    0.77
  WS02006111WS02006112 CONDUIT    494.84     0  01:22      1.95    0.24    0.67
  WS02006112WS02006115 CONDUIT    493.05     0  02:36      0.82    0.29    0.85
  WS02006113WS02006111 CONDUIT    509.91     0  02:36      2.39    0.61    0.44
  WS02006115WS02006116 CONDUIT    492.07     0  02:36      1.29    0.63    0.72
  WS02006116WS02004401 CONDUIT    491.56     0  02:37      1.21    0.68    0.80
  WS02006228WS02006109 CONDUIT    495.02     0  01:21      1.06    2.16    1.00
  WS02006229WS02006228 CONDUIT    495.48     0  01:21      1.12    1.64    1.00
  WS02006230WS02006229 CONDUIT    494.69     0  01:21      1.29   11.01    1.00
  WS02006231WS02006230 CONDUIT    550.41     0  01:21      1.47    8.35    0.96
  WS02006232WS02006231 CONDUIT    556.89     0  01:29      1.45    1.17    1.00
  WS02006234WS02006232 CONDUIT    551.52     0  01:29      1.43    1.12    1.00
  WS02006235WS02006234 CONDUIT    539.78     0  01:16      1.40    5.69    1.00
  WS02006238WS02006235 CONDUIT    441.73     0  01:59      1.45    0.99    1.00
  WS02006239WS02006238 CONDUIT    424.53     0  01:52      1.11    1.36    1.00
  WS02006240WS02006239 CONDUIT    420.75     0  03:07      1.24    1.32    1.00
  WS02006242WS02006240 CONDUIT    417.75     0  02:59      1.16    1.66    1.00
  WS02006243WS02006242 CONDUIT    418.22     0  02:45      1.38    0.89    1.00
  WS02006245WS02006243 CONDUIT    419.07     0  02:59      1.44    1.24    1.00
  WS02006247WS02006245 CONDUIT    419.49     0  02:45      1.43    3.33    1.00
  WS02006248WS02006247 CONDUIT    418.81     0  02:45      1.42    0.91    1.00
  WS02006249WS02006248 CONDUIT    420.13     0  03:09      1.36    2.30    1.00
  WS02006251WS02006249 CONDUIT    487.28     0  01:08      2.05    1.41    1.00
  WS02006252WS02006251 CONDUIT    406.81     0  01:07      4.93    1.49    1.00
  WS02006256WS02006235 CONDUIT    288.91     0  00:00      4.23    3.06    1.00
  WSF200WS02003060     CONDUIT    487.08     0  02:43      2.01    0.11    0.27
  YS02001580YS02001583 CONDUIT    267.34     0  01:06      1.15    1.04    1.00
  YS02001583YS02001586 CONDUIT    293.27     0  01:05      1.29    0.44    1.00
  YS02001586YS02001590 CONDUIT    318.60     0  02:31      1.42    0.56    1.00
  YS02001590YS02001593 CONDUIT    318.47     0  02:31      1.13    2.00    1.00
  YS02001593YS02001596 CONDUIT    317.96     0  02:55      1.69    0.50    1.00
  YS02001596YS02001600 CONDUIT    318.61     0  01:33      1.25    0.62    1.00
  YS02001600YS02001601 CONDUIT    318.73     0  01:33      1.13    0.55    1.00
  YS02001601YS02001602 CONDUIT    618.85     0  01:06      2.19    2.24    1.00
  YS02001602YS02001605 CONDUIT    618.58     0  01:06      2.19   13.09    1.00
  YS02001605YS02001607 CONDUIT    618.17     0  01:06      2.19    3.39    1.00
  YS02001607YS02001610 CONDUIT    688.70     0  01:06      1.05    0.65    1.00
  YS02001610YS02001613 CONDUIT    615.03     0  01:06      0.88    0.71    1.00
  YS02001613YS02001616 CONDUIT    577.59     0  01:06      0.90    0.50    1.00
  YS02001616YS02001619 CONDUIT    518.71     0  01:06      0.95    0.90    1.00
  YS02001619YS02001622 CONDUIT   1002.10     0  01:06      2.17    1.48    1.00
  YS02001622YS02001625 CONDUIT    983.96     0  01:29      1.34    0.53    1.00
  YS02001625YS02001629 CONDUIT    983.92     0  01:29      1.25    0.47    1.00
  YS02001629YS02163301 CONDUIT    983.83     0  01:29      1.25    1.21    1.00
  YS02001633YS02163601 CONDUIT   1389.75     0  01:30      1.77    1.46    1.00
  YS02001641YS02001644 CONDUIT   1389.56     0  01:30      1.77    4.49    1.00
  YS02001644YS02001647 CONDUIT   1875.76     0  01:08      2.39    1.10    1.00
  YS02001647YS02001649 CONDUIT   1895.63     0  01:08      2.41    1.00    1.00
  YS02001649YS02001757 CONDUIT   2170.63     0  01:08      2.76    1.32    1.00
  YS02001652YS02001649 CONDUIT    817.21     0  01:11      1.68    0.41    1.00
  YS02001655YS02001652 CONDUIT    816.58     0  01:11      2.12    0.40    1.00
  YS02001658YS02001655 CONDUIT    862.14     0  01:09      2.27    0.37    1.00
  YS02001661YS02001658 CONDUIT    815.04     0  01:11      2.53    0.32    1.00
  YS02001664YS02001661 CONDUIT    868.08     0  02:18      2.48    0.27    0.83
  YS02001745YS02001748 CONDUIT    626.52     0  01:09      2.42    0.24    1.00
  YS02001748YS02001751 CONDUIT    586.33     0  01:10      1.99    0.30    1.00
  YS02001751YS02001754 CONDUIT    587.25     0  01:10      1.98    0.28    1.00
  YS02001754YS02001757 CONDUIT    588.39     0  01:10      1.23    0.24    1.00
  YS02001757CaochengTiaoxuchi CONDUIT   3443.89     0  01:38      6.43    1.49    1.00
  YS02001759YS02001757 CONDUIT   1395.14     0  01:09      1.78    0.99    1.00
  YS02001762YS02001759 CONDUIT    817.28     0  01:09      1.04    0.94    1.00
  YS02001765YS02001762 CONDUIT    817.93     0  01:09      1.04    0.77    1.00
  YS02001767YS02001765 CONDUIT    818.29     0  01:09      1.04    1.03    1.00
  YS02001770YS02001767 CONDUIT    818.60     0  01:09      1.07    3.24    1.00
  YS02001774YS02001770 CONDUIT    501.19     0  01:08      0.96    0.32    1.00
  YS02001779YS02001774 CONDUIT    504.96     0  01:08      0.66    0.25    1.00
  YS02001783YS02001784 CONDUIT   1159.22     0  01:08      2.31    1.60    1.00
  YS02001784YS02001785 CONDUIT   1159.94     0  01:08      2.31    2.70    1.00
  YS02001786YS02001788 CONDUIT   1160.49     0  01:08      2.49    2.24    0.89
  YS02001788YS02001790 CONDUIT   1181.53     0  01:08      2.76    0.87    0.84
  YS02001790YS02001791 CONDUIT   1289.49     0  01:12      3.43    1.40    0.70
  YS02001791YS02001793 CONDUIT   1249.66     0  01:42      6.80    0.54    0.43
  YS02001793JiankangQianchi CONDUIT   1376.89     0  01:42     15.25    0.11    0.50
  YS02001882YS02001884 CONDUIT    116.46     0  01:07      0.57    0.13    1.00
  YS02001884YS02001887 CONDUIT    230.54     0  01:06      0.55    0.31    1.00
  YS02001887YS02001890 CONDUIT    647.34     0  01:08      0.82    1.11    1.00
  YS02001890YS02001895 CONDUIT    646.57     0  01:07      0.82    0.30    1.00
  YS02001895YS02001898 CONDUIT    647.72     0  01:07      0.92    1.12    1.00
  YS02001898YS02001901 CONDUIT    648.23     0  01:07      0.83    0.42    1.00
  YS02001901YS02001904 CONDUIT    649.35     0  01:07      0.90    1.01    1.00
  YS02001904YS02001907 CONDUIT    651.32     0  01:07      0.83    0.23    1.00
  YS02001907YS02006553 CONDUIT    811.94     0  03:03      0.90    0.96    1.00
  YS02001910YS02001907 CONDUIT   1180.30     0  01:41      1.50    0.67    1.00
  YS02001915YS02001910 CONDUIT   1180.48     0  01:40      1.50    0.59    1.00
  YS02001918YS02001915 CONDUIT    886.37     0  01:07      1.13    0.49    1.00
  YS02001920YS02001918 CONDUIT    778.18     0  01:08      0.99    0.75    1.00
  YS02001923YS02001920 CONDUIT    796.22     0  01:08      1.05    0.36    1.00
  YS02001926YS02001923 CONDUIT   1004.71     0  01:08      1.43    1.43    1.00
  YS02001929YS02001926 CONDUIT    892.83     0  01:08      1.23    0.42    1.00
  YS02006553YS02006556 CONDUIT    812.77     0  03:03      1.03    0.70    1.00
  YS02006556YS02006558 CONDUIT    814.29     0  03:03      1.04    0.64    1.00
  YS02006558YS02006561 CONDUIT   1174.43     0  01:07      4.15    2.60    1.00
  YS02006561YS02001783 CONDUIT   1158.95     0  01:08      2.31    0.60    1.00
  YS02163301YS02001633 CONDUIT    984.31     0  01:29      1.25    0.93    1.00
  YS02163601YS02164001 CONDUIT   1389.92     0  01:30      1.77    1.23    1.00
  YS02164001YS02001641 CONDUIT   1389.49     0  01:30      1.77    1.90    1.00
  CC-R1                PUMP       683.00     0  00:00              1.00
  CC-R2                PUMP       683.00     0  00:00              1.00
  CC-S1                PUMP       200.00     0  00:00              1.00
  CC-S2                PUMP       200.00     0  00:00              1.00
  JK-R1                PUMP      1000.00     0  00:00              1.00
  JK-R2                PUMP      1000.00     0  00:00              1.00
  JK-S                 PUMP       300.00     0  00:00              1.00
  
  
  ***************************
  Flow Classification Summary
  ***************************
  
  -------------------------------------------------------------------------------------
                      Adjusted    ---------- Fraction of Time in Flow Class ---------- 
                       /Actual         Up    Down  Sub   Sup   Up    Down  Norm  Inlet 
  Conduit               Length    Dry  Dry   Dry   Crit  Crit  Crit  Crit  Ltd   Ctrl  
  -------------------------------------------------------------------------------------
  1                       1.00   0.00  0.00  0.00  0.00  1.00  0.00  0.00  0.57  0.00
  WS02003060WS02003069    1.00   0.00  0.00  0.00  0.98  0.02  0.00  0.00  0.57  0.00
  WS02003066WSF200        1.00   0.05  0.00  0.00  0.00  0.95  0.00  0.00  0.93  0.00
  WS02003067WS02003066    1.00   0.05  0.00  0.00  0.95  0.00  0.00  0.00  0.00  0.00
  WS02003069WS02003072    1.00   0.00  0.00  0.00  0.99  0.01  0.00  0.00  0.57  0.00
  WS02003072WS02003073    1.00   0.00  0.00  0.00  0.00  0.00  0.00  1.00  0.00  0.00
  WS02004401WS02004402    1.00   0.02  0.00  0.00  0.98  0.00  0.00  0.00  0.00  0.00
  WS02004402WS02004403    1.00   0.02  0.00  0.00  0.98  0.00  0.00  0.00  0.00  0.00
  WS02004403WS02004404    1.00   0.00  0.03  0.00  0.97  0.00  0.00  0.00  0.00  0.00
  WS02004404WS02004405    1.00   0.00  0.00  0.00  1.00  0.00  0.00  0.00  0.00  0.00
  WS02004405WS02004406    1.00   0.00  0.00  0.00  1.00  0.00  0.00  0.00  0.00  0.00
  WS02004406WS02004407    1.00   0.00  0.03  0.00  0.97  0.00  0.00  0.00  0.00  0.00
  WS02004407WS02004409    1.00   0.03  0.00  0.00  0.95  0.01  0.00  0.00  0.95  0.00
  WS02004409WS02004410    1.00   0.03  0.00  0.00  0.96  0.00  0.00  0.00  0.00  0.00
  WS02004410WS02004411    1.00   0.04  0.00  0.00  0.96  0.00  0.00  0.00  0.00  0.00
  WS02004411WS02004412    1.00   0.04  0.00  0.00  0.96  0.00  0.00  0.00  0.00  0.00
  WS02004412WS02004413    1.00   0.04  0.00  0.00  0.96  0.00  0.00  0.00  0.00  0.00
  WS02004413WS02003067    1.00   0.04  0.01  0.00  0.00  0.00  0.95  0.00  0.00  0.00
  WS02006109WS02006110    1.00   0.00  0.01  0.00  0.98  0.00  0.01  0.00  0.00  0.00
  WS02006110WS02006113    1.00   0.01  0.01  0.00  0.98  0.00  0.00  0.00  0.00  0.00
  WS02006111WS02006112    1.00   0.02  0.00  0.00  0.98  0.00  0.00  0.00  0.98  0.00
  WS02006112WS02006115    1.00   0.02  0.00  0.00  0.97  0.00  0.00  0.00  0.00  0.00
  WS02006113WS02006111    1.00   0.02  0.00  0.00  0.00  0.98  0.00  0.00  0.15  0.00
  WS02006115WS02006116    1.00   0.02  0.00  0.00  0.97  0.00  0.00  0.01  0.00  0.00
  WS02006116WS02004401    1.00   0.02  0.00  0.00  0.98  0.00  0.00  0.00  0.00  0.00
  WS02006228WS02006109    1.00   0.00  0.00  0.00  1.00  0.00  0.00  0.00  0.00  0.00
  WS02006229WS02006228    1.00   0.00  0.00  0.00  0.99  0.00  0.00  0.01  0.00  0.00
  WS02006230WS02006229    1.00   0.00  0.00  0.00  0.99  0.00  0.00  0.01  0.02  0.00
  WS02006231WS02006230    1.00   0.00  0.00  0.00  0.44  0.00  0.56  0.00  0.00  0.00
  WS02006232WS02006231    1.00   0.00  0.00  0.00  0.99  0.00  0.01  0.00  0.00  0.00
  WS02006234WS02006232    1.00   0.00  0.00  0.00  1.00  0.00  0.00  0.00  0.13  0.00
  WS02006235WS02006234    1.00   0.00  0.00  0.00  0.67  0.00  0.33  0.00  0.00  0.00
  WS02006238WS02006235    1.00   0.00  0.00  0.00  1.00  0.00  0.00  0.00  0.00  0.00
  WS02006239WS02006238    1.00   0.00  0.00  0.00  1.00  0.00  0.00  0.00  0.29  0.00
  WS02006240WS02006239    1.00   0.00  0.00  0.00  0.60  0.00  0.00  0.40  0.02  0.00
  WS02006242WS02006240    1.00   0.00  0.00  0.00  1.00  0.00  0.00  0.00  0.00  0.00
  WS02006243WS02006242    1.00   0.00  0.00  0.00  0.99  0.00  0.00  0.01  0.51  0.00
  WS02006245WS02006243    1.00   0.00  0.00  0.00  0.60  0.00  0.00  0.40  0.00  0.00
  WS02006247WS02006245    1.00   0.00  0.00  0.00  0.99  0.00  0.00  0.01  0.00  0.00
  WS02006248WS02006247    1.00   0.00  0.00  0.00  0.99  0.00  0.00  0.01  0.12  0.00
  WS02006249WS02006248    1.00   0.00  0.00  0.00  0.49  0.00  0.51  0.00  0.00  0.00
  WS02006251WS02006249    1.00   0.00  0.00  0.00  1.00  0.00  0.00  0.00  0.52  0.00
  WS02006252WS02006251    1.00   0.00  0.54  0.00  0.22  0.00  0.24  0.00  0.44  0.00
  WS02006256WS02006235    1.00   0.00  0.00  0.00  0.99  0.01  0.00  0.00  0.00  0.00
  WSF200WS02003060        1.00   0.00  0.05  0.00  0.38  0.57  0.00  0.00  0.51  0.00
  YS02001580YS02001583    1.00   0.14  0.49  0.00  0.37  0.00  0.00  0.00  0.58  0.00
  YS02001583YS02001586    1.00   0.36  0.22  0.00  0.43  0.00  0.00  0.00  0.58  0.00
  YS02001586YS02001590    1.00   0.13  0.00  0.00  0.53  0.03  0.00  0.31  0.27  0.00
  YS02001590YS02001593    1.00   0.13  0.00  0.00  0.29  0.00  0.59  0.00  0.00  0.00
  YS02001593YS02001596    1.00   0.13  0.00  0.00  0.30  0.00  0.00  0.57  0.01  0.00
  YS02001596YS02001600    1.00   0.13  0.00  0.00  0.33  0.01  0.00  0.54  0.02  0.00
  YS02001600YS02001601    1.00   0.13  0.00  0.00  0.87  0.00  0.00  0.00  0.51  0.00
  YS02001601YS02001602    1.00   0.13  0.00  0.00  0.87  0.00  0.00  0.00  0.00  0.00
  YS02001602YS02001605    1.00   0.13  0.00  0.00  0.87  0.00  0.00  0.00  0.00  0.00
  YS02001605YS02001607    1.00   0.13  0.00  0.00  0.87  0.00  0.00  0.00  0.00  0.00
  YS02001607YS02001610    1.00   0.13  0.00  0.00  0.87  0.00  0.00  0.00  0.00  0.00
  YS02001610YS02001613    1.00   0.13  0.00  0.00  0.87  0.00  0.00  0.00  0.00  0.00
  YS02001613YS02001616    1.00   0.13  0.00  0.00  0.87  0.00  0.00  0.00  0.00  0.00
  YS02001616YS02001619    1.00   0.13  0.00  0.00  0.87  0.00  0.00  0.00  0.00  0.00
  YS02001619YS02001622    1.00   0.13  0.00  0.00  0.87  0.00  0.00  0.00  0.23  0.00
  YS02001622YS02001625    1.00   0.13  0.00  0.00  0.87  0.00  0.00  0.00  0.00  0.00
  YS02001625YS02001629    1.00   0.13  0.01  0.00  0.33  0.00  0.53  0.00  0.00  0.00
  YS02001629YS02163301    1.00   0.13  0.00  0.00  0.87  0.00  0.00  0.00  0.00  0.00
  YS02001633YS02163601    1.00   0.00  0.01  0.00  0.99  0.00  0.00  0.00  0.12  0.00
  YS02001641YS02001644    1.00   0.00  0.01  0.00  0.99  0.00  0.00  0.00  0.00  0.00
  YS02001644YS02001647    1.00   0.00  0.13  0.00  0.87  0.00  0.00  0.00  0.00  0.00
  YS02001647YS02001649    1.00   0.00  0.13  0.00  0.64  0.23  0.00  0.00  0.51  0.00
  YS02001649YS02001757    1.00   0.00  0.00  0.00  0.76  0.24  0.00  0.00  0.31  0.00
  YS02001652YS02001649    1.00   0.00  0.00  0.00  0.99  0.00  0.00  0.00  0.62  0.00
  YS02001655YS02001652    1.00   0.00  0.00  0.00  0.35  0.00  0.00  0.64  0.02  0.00
  YS02001658YS02001655    1.00   0.00  0.13  0.00  0.83  0.04  0.00  0.00  0.55  0.00
  YS02001661YS02001658    1.00   0.13  0.00  0.00  0.66  0.21  0.00  0.00  0.58  0.00
  YS02001664YS02001661    1.00   0.13  0.00  0.00  0.82  0.05  0.00  0.00  0.73  0.00
  YS02001745YS02001748    1.00   0.00  0.00  0.00  0.29  0.01  0.00  0.70  0.05  0.00
  YS02001748YS02001751    1.00   0.00  0.00  0.00  0.97  0.03  0.00  0.00  0.67  0.00
  YS02001751YS02001754    1.00   0.00  0.00  0.00  0.35  0.00  0.00  0.64  0.02  0.00
  YS02001754YS02001757    1.00   0.00  0.00  0.00  1.00  0.00  0.00  0.00  0.64  0.00
  YS02001757CaochengTiaoxuchi    1.00   0.00  0.00  0.00  0.87  0.13  0.00  0.00  0.60  0.00
  YS02001759YS02001757    1.00   0.00  0.00  0.00  0.99  0.01  0.00  0.00  0.57  0.00
  YS02001762YS02001759    1.00   0.00  0.00  0.00  1.00  0.00  0.00  0.00  0.01  0.00
  YS02001765YS02001762    1.00   0.00  0.00  0.00  1.00  0.00  0.00  0.00  0.60  0.00
  YS02001767YS02001765    1.00   0.00  0.00  0.00  1.00  0.00  0.00  0.00  0.00  0.00
  YS02001770YS02001767    1.00   0.00  0.00  0.00  1.00  0.00  0.00  0.00  0.00  0.00
  YS02001774YS02001770    1.00   0.00  0.13  0.00  0.74  0.00  0.13  0.00  0.00  0.00
  YS02001779YS02001774    1.00   0.00  0.00  0.00  1.00  0.00  0.00  0.00  0.63  0.00
  YS02001783YS02001784    1.00   0.00  0.13  0.00  0.87  0.00  0.00  0.00  0.51  0.00
  YS02001784YS02001785    1.00   0.00  0.00  0.00  1.00  0.00  0.00  0.00  0.12  0.00
  YS02001786YS02001788    1.00   0.00  0.00  0.00  0.89  0.11  0.00  0.00  0.00  0.00
  YS02001788YS02001790    1.00   0.00  0.00  0.00  0.26  0.74  0.00  0.00  0.71  0.00
  YS02001790YS02001791    1.00   0.00  0.00  0.00  0.01  0.99  0.00  0.00  0.09  0.00
  YS02001791YS02001793    1.00   0.00  0.00  0.00  0.00  1.00  0.00  0.00  0.04  0.00
  YS02001793JiankangQianchi    1.00   0.00  0.00  0.00  0.35  0.64  0.00  0.00  0.68  0.00
  YS02001882YS02001884    1.00   0.13  0.00  0.00  0.87  0.00  0.00  0.00  0.00  0.00
  YS02001884YS02001887    1.00   0.06  0.05  0.00  0.89  0.00  0.00  0.00  0.00  0.00
  YS02001887YS02001890    1.00   0.00  0.00  0.00  0.97  0.00  0.03  0.00  0.00  0.00
  YS02001890YS02001895    1.00   0.00  0.13  0.00  0.87  0.00  0.00  0.00  0.00  0.00
  YS02001895YS02001898    1.00   0.13  0.00  0.00  0.86  0.00  0.00  0.00  0.00  0.00
  YS02001898YS02001901    1.00   0.13  0.00  0.00  0.87  0.00  0.00  0.00  0.00  0.00
  YS02001901YS02001904    1.00   0.13  0.00  0.00  0.87  0.00  0.00  0.00  0.00  0.00
  YS02001904YS02001907    1.00   0.00  0.13  0.00  0.87  0.00  0.00  0.00  0.00  0.00
  YS02001907YS02006553    1.00   0.00  0.02  0.00  0.98  0.00  0.00  0.00  0.00  0.00
  YS02001910YS02001907    1.00   0.00  0.00  0.00  0.97  0.00  0.00  0.03  0.10  0.00
  YS02001915YS02001910    1.00   0.00  0.00  0.00  0.98  0.02  0.00  0.00  0.10  0.00
  YS02001918YS02001915    1.00   0.00  0.01  0.00  0.98  0.02  0.00  0.00  0.60  0.00
  YS02001920YS02001918    1.00   0.00  0.01  0.00  0.99  0.00  0.00  0.00  0.00  0.00
  YS02001923YS02001920    1.00   0.00  0.00  0.00  1.00  0.00  0.00  0.00  0.74  0.00
  YS02001926YS02001923    1.00   0.00  0.07  0.00  0.25  0.00  0.67  0.00  0.00  0.00
  YS02001929YS02001926    1.00   0.00  0.13  0.00  0.87  0.00  0.00  0.00  0.62  0.00
  YS02006553YS02006556    1.00   0.01  0.00  0.00  0.99  0.00  0.00  0.00  0.03  0.00
  YS02006556YS02006558    1.00   0.00  0.00  0.00  1.00  0.00  0.00  0.00  0.00  0.00
  YS02006558YS02006561    1.00   0.13  0.00  0.00  0.25  0.62  0.00  0.00  0.12  0.00
  YS02006561YS02001783    1.00   0.13  0.00  0.00  0.26  0.60  0.00  0.00  0.59  0.00
  YS02163301YS02001633    1.00   0.00  0.13  0.00  0.87  0.00  0.00  0.00  0.00  0.00
  YS02163601YS02164001    1.00   0.00  0.08  0.00  0.92  0.00  0.00  0.00  0.00  0.00
  YS02164001YS02001641    1.00   0.01  0.08  0.00  0.92  0.00  0.00  0.00  0.05  0.00
  
  
  *************************
  Conduit Surcharge Summary
  *************************
  
  ----------------------------------------------------------------------------
                                                           Hours        Hours 
                         --------- Hours Full --------   Above Full   Capacity
  Conduit                Both Ends  Upstream  Dnstream   Normal Flow   Limited
  ----------------------------------------------------------------------------
  WS02003072WS02003073        0.01      0.01      0.01      1.87         0.01
  WS02004404WS02004405        0.01      0.01      0.01      3.89         0.01
  WS02006109WS02006110        0.01      0.01      3.36      0.01         0.01
  WS02006110WS02006113        0.01      0.01      3.34      0.01         0.01
  WS02006111WS02006112        0.01      0.01      3.39      0.01         0.01
  WS02006112WS02006115        0.01      0.01      0.01      0.01         0.01
  WS02006228WS02006109        3.29      3.36      3.29      3.62         3.28
  WS02006229WS02006228        3.27      3.30      3.27      3.53         3.27
  WS02006230WS02006229        3.43      3.46      3.43      4.06         3.43
  WS02006231WS02006230        0.01      0.01      0.95      3.90         0.01
  WS02006232WS02006231        0.40      0.40      3.39      0.76         0.01
  WS02006234WS02006232        3.01      3.01      3.39      0.38         0.75
  WS02006235WS02006234        1.50      1.65      2.91      3.82         0.46
  WS02006238WS02006235        3.22      3.22      3.41      0.01         0.26
  WS02006239WS02006238        3.34      3.39      3.34      3.50         2.66
  WS02006240WS02006239        3.19      3.33      3.19      3.50         2.67
  WS02006242WS02006240        3.30      3.30      3.45      3.58         0.12
  WS02006243WS02006242        3.34      3.34      3.42      0.01         0.81
  WS02006245WS02006243        3.33      3.34      3.33      3.56         2.65
  WS02006247WS02006245        3.32      3.36      3.32      3.63         2.89
  WS02006248WS02006247        3.32      3.32      3.35      0.01         1.11
  WS02006249WS02006248        3.31      3.31      3.33      3.63         0.01
  WS02006251WS02006249        3.33      3.34      3.33      3.61         2.50
  WS02006252WS02006251        3.64      3.64      3.64      3.64         0.01
  WS02006256WS02006235        3.11      3.85      4.49      0.98         0.15
  YS02001580YS02001583        2.08      2.08      2.11      0.01         0.01
  YS02001583YS02001586        2.08      2.08      2.17      0.01         0.01
  YS02001586YS02001590        2.17      2.17      2.21      0.01         0.01
  YS02001590YS02001593        2.21      2.22      2.22      2.26         0.01
  YS02001593YS02001596        2.22      2.22      2.28      0.01         0.01
  YS02001596YS02001600        2.29      2.29      2.36      0.01         0.01
  YS02001600YS02001601        2.39      2.39      2.54      0.01         0.01
  YS02001601YS02001602        2.49      2.49      2.56      2.30         0.01
  YS02001602YS02001605        2.47      2.47      2.49      3.00         0.01
  YS02001605YS02001607        2.46      2.47      2.48      2.40         2.36
  YS02001607YS02001610        2.23      2.23      2.24      0.01         0.01
  YS02001610YS02001613        2.23      2.23      2.24      0.01         0.01
  YS02001613YS02001616        2.20      2.20      2.23      0.01         0.01
  YS02001616YS02001619        2.19      2.19      2.20      0.01         0.07
  YS02001619YS02001622        2.19      2.19      2.20      2.13         1.99
  YS02001622YS02001625        2.20      2.20      2.33      0.01         0.01
  YS02001625YS02001629        2.17      2.17      2.33      0.01         0.01
  YS02001629YS02163301        2.35      2.35      2.36      0.17         0.21
  YS02001633YS02163601        2.38      2.38      2.42      0.30         0.29
  YS02001641YS02001644        2.38      2.38      2.38      2.61         2.07
  YS02001644YS02001647        2.15      2.15      2.38      0.07         0.01
  YS02001647YS02001649        2.15      2.15      2.32      0.01         0.01
  YS02001649YS02001757        2.28      2.32      2.36      0.47         0.38
  YS02001652YS02001649        2.07      2.07      2.32      0.01         0.01
  YS02001655YS02001652        1.84      1.84      2.04      0.01         0.01
  YS02001658YS02001655        1.57      1.57      1.84      0.01         0.01
  YS02001661YS02001658        0.07      0.07      1.57      0.01         0.01
  YS02001664YS02001661        0.01      0.01      0.34      0.01         0.01
  YS02001745YS02001748        0.01      0.01      1.04      0.01         0.01
  YS02001748YS02001751        1.38      1.38      1.74      0.01         0.01
  YS02001751YS02001754        1.74      1.74      1.93      0.01         0.01
  YS02001754YS02001757        1.98      1.98      2.36      0.01         0.01
  YS02001757CaochengTiaoxuchi        1.95      2.36      2.38      1.32         0.80
  YS02001759YS02001757        2.24      2.24      2.36      0.01         0.03
  YS02001762YS02001759        2.20      2.20      2.24      0.01         0.07
  YS02001765YS02001762        2.14      2.14      2.20      0.01         0.02
  YS02001767YS02001765        2.10      2.10      2.14      0.03         0.11
  YS02001770YS02001767        2.10      2.11      2.10      2.00         1.71
  YS02001774YS02001770        2.08      2.08      2.18      0.01         0.01
  YS02001779YS02001774        1.93      1.93      2.18      0.01         0.01
  YS02001783YS02001784        2.00      2.01      2.00      2.07         2.00
  YS02001784YS02001785        1.94      2.00      1.94      2.14         1.94
  YS02001786YS02001788        0.01      1.94      0.01      2.11         0.01
  YS02001790YS02001791        0.01      0.01      0.01      1.99         0.01
  YS02001882YS02001884        1.98      1.98      1.99      0.01         0.01
  YS02001884YS02001887        2.00      2.00      2.01      0.01         0.01
  YS02001887YS02001890        2.02      2.02      2.02      0.15         0.01
  YS02001890YS02001895        1.98      1.98      2.03      0.01         0.01
  YS02001895YS02001898        1.97      1.97      1.98      0.02         0.01
  YS02001898YS02001901        1.98      1.98      2.00      0.01         0.01
  YS02001901YS02001904        2.00      2.00      2.00      0.01         0.01
  YS02001904YS02001907        2.00      2.00      2.11      0.01         0.01
  YS02001907YS02006553        2.14      2.14      2.17      0.01         0.01
  YS02001910YS02001907        2.03      2.03      2.10      0.01         0.01
  YS02001915YS02001910        1.98      1.98      2.03      0.01         0.01
  YS02001918YS02001915        1.87      1.87      1.98      0.01         0.01
  YS02001920YS02001918        1.87      1.87      1.91      0.01         0.01
  YS02001923YS02001920        1.78      1.78      1.91      0.01         0.01
  YS02001926YS02001923        0.01      0.01      0.09      0.01         0.01
  YS02001929YS02001926        0.01      0.01      0.09      0.01         0.01
  YS02006553YS02006556        2.07      2.07      2.10      0.01         0.01
  YS02006556YS02006558        2.09      2.09      2.11      0.01         0.01
  YS02006558YS02006561        1.95      2.06      1.95      2.13         1.95
  YS02006561YS02001783        1.79      1.79      2.01      0.01         0.01
  YS02163301YS02001633        2.36      2.36      2.39      0.01         0.02
  YS02163601YS02164001        2.38      2.38      2.42      0.24         0.01
  YS02164001YS02001641        2.37      2.38      2.38      0.53         0.60
  
  
  ***************
  Pumping Summary
  ***************
  
  ---------------------------------------------------------------------------------------------------------
                                                  Min       Avg       Max     Total     Power    % Time Off
                        Percent   Number of      Flow      Flow      Flow    Volume     Usage    Pump Curve
  Pump                 Utilized   Start-Ups       LPS       LPS       LPS  10^6 ltr     Kw-hr    Low   High
  ---------------------------------------------------------------------------------------------------------
  CC-R1                   45.95           2      0.00    683.00    683.00     8.945    167.17    0.0   60.5
  CC-R2                   45.95           2      0.00    683.00    683.00     8.945    167.17    0.0   60.5
  CC-S1                   45.95           2      0.00    200.00    200.00     2.619     14.16    0.0   32.6
  CC-S2                   45.95           2      0.00    200.00    200.00     2.619     14.16    0.0   32.6
  JK-R1                   14.23         518      0.00   1000.00   1000.00     4.055     10.76    0.0    0.0
  JK-R2                   14.23         518      0.00   1000.00   1000.00     4.055     10.76    0.0    0.0
  JK-S                    14.23         518      0.00    300.00    300.00     1.217     27.49    0.0    0.0
  

  Analysis begun on:  Tue Apr 22 10:16:21 2025
  Analysis ended on:  Tue Apr 22 10:16:22 2025
  Total elapsed time: 00:00:01