
  EPA STORM WATER MANAGEMENT MODEL - VERSION 5.2 (Build 5.2.4)
  PYSWMM TOOLKIT API - VERSION v1.0 (2023-11-27)
  ------------------------------------------------------------

  WARNING 04: minimum elevation drop used for Conduit WS02004404WS02004405
  WARNING 03: negative offset ignored for Link YS02001904YS02001907
  
  ****************
  Analysis Options
  ****************
  Flow Units ............... LPS
  Process Models:
    Rainfall/Runoff ........ YES
    RDII ................... NO
    Snowmelt ............... NO
    Groundwater ............ NO
    Flow Routing ........... YES
    Ponding Allowed ........ NO
    Water Quality .......... NO
  Infiltration Method ...... HORTON
  Flow Routing Method ...... DYNWAVE
  Surcharge Method ......... EXTRAN
  Starting Date ............ 08/28/2015 08:00:00
  Ending Date .............. 08/28/2015 16:00:00
  Antecedent Dry Days ...... 8.0
  Report Time Step ......... 00:01:00
  Wet Time Step ............ 00:01:00
  Dry Time Step ............ 00:01:00
  Routing Time Step ........ 30.00 sec
  Variable Time Step ....... YES
  Maximum Trials ........... 8
  Number of Threads ........ 4
  Head Tolerance ........... 0.001500 m
  
  
  **************************        Volume         Depth
  Runoff Quantity Continuity     hectare-m            mm
  **************************     ---------       -------
  Total Precipitation ......         2.254        67.962
  Evaporation Loss .........         0.000         0.000
  Infiltration Loss ........         0.100         3.003
  Surface Runoff ...........         2.122        63.980
  Final Storage ............         0.033         0.996
  Continuity Error (%) .....        -0.025
  
  
  **************************        Volume        Volume
  Flow Routing Continuity        hectare-m      10^6 ltr
  **************************     ---------     ---------
  Dry Weather Inflow .......         0.025         0.248
  Wet Weather Inflow .......         2.122        21.219
  Groundwater Inflow .......         0.000         0.000
  RDII Inflow ..............         0.000         0.000
  External Inflow ..........         0.083         0.825
  External Outflow .........         1.768        17.679
  Flooding Loss ............         0.638         6.378
  Evaporation Loss .........         0.000         0.000
  Exfiltration Loss ........         0.000         0.000
  Initial Stored Volume ....         0.243         2.431
  Final Stored Volume ......         0.083         0.834
  Continuity Error (%) .....        -0.677
  
  
  *************************
  Highest Continuity Errors
  *************************
  Node WS02006256 (-14.57%)
  Node YS02001884 (5.07%)
  Node YS02001583 (-5.04%)
  Node JK-storage (-1.68%)
  
  
  ***************************
  Time-Step Critical Elements
  ***************************
  Link WS02004404WS02004405 (23.72%)
  Link YS02001793JiankangQianchi (21.63%)
  Link WS02006238WS02006235 (18.88%)
  Link WS02003066WSF200 (12.16%)
  Link YS02006556YS02006558 (4.32%)
  
  
  ********************************
  Highest Flow Instability Indexes
  ********************************
  Link WS02006113WS02006111 (36)
  Link WS02006229WS02006228 (34)
  Link WS02006252WS02006251 (31)
  Link WS02006256WS02006235 (28)
  Link WS02006228WS02006109 (24)
  
  
  *********************************
  Most Frequent Nonconverging Nodes
  *********************************
  Node CC-1 (36.58%)
  Node CC-2 (36.58%)
  Node JK-1 (36.58%)
  Node JK-2 (36.58%)
  Node WSC (36.58%)
  
  
  *************************
  Routing Time Step Summary
  *************************
  Minimum Time Step           :     0.00 sec
  Average Time Step           :     3.16 sec
  Maximum Time Step           :     6.43 sec
  % of Time in Steady State   :     0.00
  Average Iterations per Step :     4.53
  % of Steps Not Converging   :    36.58
  Time Step Frequencies       :
     30.000 - 13.228 sec      :     0.00 %
     13.228 -  5.833 sec      :    21.26 %
      5.833 -  2.572 sec      :    28.20 %
      2.572 -  1.134 sec      :    37.13 %
      1.134 -  0.500 sec      :    13.41 %
  
  
  ***************************
  Subcatchment Runoff Summary
  ***************************
  
  ------------------------------------------------------------------------------------------------------------------------------
                            Total      Total      Total      Total     Imperv       Perv      Total       Total     Peak  Runoff
                           Precip      Runon       Evap      Infil     Runoff     Runoff     Runoff      Runoff   Runoff   Coeff
  Subcatchment                 mm         mm         mm         mm         mm         mm         mm    10^6 ltr      LPS
  ------------------------------------------------------------------------------------------------------------------------------
  sub60                     67.96       0.00       0.00       1.81      58.61       6.35      64.96        0.85   624.19   0.956
  sub61                     67.96       0.00       0.00       2.62      55.28       8.94      64.22        1.18   865.91   0.945
  sub62                     67.96       0.00       0.00       1.20      61.24       4.24      65.48        1.79  1218.11   0.963
  sub63                     67.96       0.00       0.00       4.82      47.29      14.89      62.18        1.41   972.78   0.915
  sub64                     67.96       0.00       0.00       2.44      56.56       7.76      64.32        1.55   987.04   0.946
  sub65                     67.96       0.00       0.00       2.11      57.87       6.73      64.60        1.78  1099.44   0.951
  sub66                     67.96       0.00       0.00       5.98      47.18      13.73      60.91        2.84  1430.30   0.896
  sub67                     67.96       0.00       0.00       1.16      61.29       4.28      65.56        1.22   944.45   0.965
  sub68                     67.96       0.00       0.00       2.17      57.26       7.35      64.61        1.78  1251.19   0.951
  sub69                     67.96       0.00       0.00       1.93      57.66       8.27      65.93        2.44  1463.01   0.970
  sub70                     67.96       0.00       0.00       6.45      44.69      16.65      61.34        1.77   802.16   0.903
  sub71                     67.96       0.00       0.00       1.23      61.20       4.20      65.40        1.71  1064.43   0.962
  sub72                     67.96       0.00       0.00       1.10      61.80       3.66      65.46        0.90   514.85   0.963
  
  
  ******************
  Node Depth Summary
  ******************
  
  ---------------------------------------------------------------------------------
                                 Average  Maximum  Maximum  Time of Max    Reported
                                   Depth    Depth      HGL   Occurrence   Max Depth
  Node                 Type       Meters   Meters   Meters  days hr:min      Meters
  ---------------------------------------------------------------------------------
  WS02003060           JUNCTION     0.20     0.36     5.30     0  02:21        0.36
  WS02003066           JUNCTION     0.17     0.29     5.84     0  02:21        0.29
  WS02003067           JUNCTION     0.45     0.68     6.00     0  02:20        0.68
  WS02003069           JUNCTION     0.22     0.41     4.99     0  02:22        0.41
  WS02003072           JUNCTION     0.28     0.48     4.85     0  02:23        0.48
  WS02003073           JUNCTION     0.16     0.28     4.35     0  02:23        0.28
  WS02004401           JUNCTION     0.55     0.83     6.83     0  02:18        0.83
  WS02004402           JUNCTION     0.58     0.86     6.82     0  02:19        0.86
  WS02004403           JUNCTION     0.60     0.88     6.81     0  02:14        0.88
  WS02004404           JUNCTION     0.67     0.96     6.81     0  02:14        0.96
  WS02004405           JUNCTION     0.66     0.93     6.78     0  02:14        0.93
  WS02004406           JUNCTION     0.67     0.93     6.76     0  02:18        0.93
  WS02004407           JUNCTION     0.15     0.28     6.59     0  02:19        0.28
  WS02004409           JUNCTION     0.34     0.63     6.40     0  02:19        0.63
  WS02004410           JUNCTION     0.36     0.65     6.37     0  02:20        0.65
  WS02004411           JUNCTION     0.38     0.66     6.34     0  02:20        0.66
  WS02004412           JUNCTION     0.40     0.67     6.31     0  02:20        0.67
  WS02004413           JUNCTION     0.56     0.83     6.30     0  02:20        0.83
  WS02006109           JUNCTION     0.61     0.92     7.54     0  02:13        0.92
  WS02006110           JUNCTION     0.62     0.89     7.47     0  02:16        0.89
  WS02006111           JUNCTION     0.16     0.27     6.98     0  02:13        0.27
  WS02006112           JUNCTION     0.70     1.03     6.91     0  02:19        1.02
  WS02006113           JUNCTION     0.24     0.43     7.32     0  02:06        0.43
  WS02006115           JUNCTION     0.44     0.73     6.86     0  02:18        0.72
  WS02006116           JUNCTION     0.52     0.81     6.85     0  02:13        0.81
  WS02006228           JUNCTION     0.60     0.96     7.61     0  02:16        0.95
  WS02006229           JUNCTION     0.58     0.95     7.64     0  02:05        0.94
  WS02006230           JUNCTION     0.58     1.02     7.76     0  02:05        1.01
  WS02006231           JUNCTION     0.37     1.32     8.44     0  02:11        0.83
  WS02006232           JUNCTION     0.50     2.18     9.22     0  02:11        2.18
  WS02006234           JUNCTION     0.43     1.96     9.12     0  02:11        1.96
  WS02006235           JUNCTION     0.47     2.00     9.16     0  02:12        2.00
  WS02006238           JUNCTION     0.50     2.15     9.29     0  02:09        2.15
  WS02006239           JUNCTION     0.47     2.03     9.24     0  02:09        2.03
  WS02006240           JUNCTION     0.45     2.10     9.39     0  02:09        2.10
  WS02006242           JUNCTION     0.51     1.55     8.82     0  01:57        1.55
  WS02006243           JUNCTION     0.45     1.48     8.90     0  02:03        1.48
  WS02006245           JUNCTION     0.46     1.52     9.01     0  02:09        1.52
  WS02006247           JUNCTION     0.48     1.42     8.92     0  02:16        1.42
  WS02006248           JUNCTION     0.45     1.10     8.69     0  01:57        1.10
  WS02006249           JUNCTION     0.48     1.09     8.69     0  01:57        1.09
  WS02006251           JUNCTION     0.48     1.22     8.89     0  02:02        1.14
  WS02006252           JUNCTION     0.31     1.50     9.74     0  00:00        0.69
  WS02006256           JUNCTION     0.82     2.35     9.28     0  00:00        2.35
  WSF200               JUNCTION     0.14     0.28     5.51     0  02:21        0.28
  YS02001580           JUNCTION     0.17     1.05     9.59     0  01:53        1.05
  YS02001583           JUNCTION     0.20     1.11     9.61     0  01:53        0.97
  YS02001586           JUNCTION     0.31     1.13     9.30     0  01:53        1.13
  YS02001590           JUNCTION     0.42     1.40     9.26     0  01:53        1.40
  YS02001593           JUNCTION     0.36     1.33     9.19     0  01:53        1.29
  YS02001596           JUNCTION     0.48     1.68     9.10     0  01:53        1.66
  YS02001600           JUNCTION     0.58     1.87     9.00     0  01:53        1.87
  YS02001601           JUNCTION     0.76     2.06     8.90     0  01:53        2.06
  YS02001602           JUNCTION     0.66     1.87     8.77     0  01:53        1.87
  YS02001605           JUNCTION     0.61     1.78     8.68     0  01:53        1.78
  YS02001607           JUNCTION     0.56     1.68     8.53     0  02:11        1.67
  YS02001610           JUNCTION     0.60     1.68     8.48     0  01:53        1.68
  YS02001613           JUNCTION     0.56     1.68     8.52     0  01:53        1.66
  YS02001616           JUNCTION     0.50     1.61     8.52     0  01:53        1.60
  YS02001619           JUNCTION     0.48     1.61     8.54     0  01:59        1.60
  YS02001622           JUNCTION     0.46     1.58     8.49     0  02:00        1.57
  YS02001625           JUNCTION     0.70     1.78     8.38     0  01:56        1.78
  YS02001629           JUNCTION     0.60     1.85     8.40     0  01:53        1.85
  YS02001633           JUNCTION     0.66     2.05     8.50     0  01:57        2.05
  YS02001641           JUNCTION     0.62     2.10     8.54     0  02:12        2.10
  YS02001644           JUNCTION     0.60     1.92     8.35     0  01:58        1.92
  YS02001647           JUNCTION     0.38     1.81     8.42     0  01:58        1.77
  YS02001649           JUNCTION     0.42     2.05     8.44     0  01:59        2.02
  YS02001652           JUNCTION     0.31     2.16     8.76     0  01:59        1.93
  YS02001655           JUNCTION     0.22     2.20     9.05     0  01:59        1.76
  YS02001658           JUNCTION     0.16     2.20     9.34     0  01:58        1.46
  YS02001661           JUNCTION     0.18     1.63     9.03     0  01:59        1.15
  YS02001664           JUNCTION     0.09     0.84     8.76     0  01:59        0.65
  YS02001745           JUNCTION     0.09     1.45     8.96     0  01:59        0.95
  YS02001748           JUNCTION     0.14     2.22     9.30     0  01:58        1.33
  YS02001751           JUNCTION     0.17     2.05     8.93     0  01:58        1.47
  YS02001754           JUNCTION     0.24     2.00     8.60     0  01:59        1.69
  YS02001757           JUNCTION     0.42     2.15     8.41     0  01:59        1.99
  YS02001759           JUNCTION     0.36     2.13     8.50     0  01:59        2.00
  YS02001762           JUNCTION     0.35     2.10     8.50     0  01:59        1.96
  YS02001765           JUNCTION     0.33     2.07     8.52     0  01:58        1.93
  YS02001767           JUNCTION     0.33     2.01     8.50     0  01:58        1.91
  YS02001770           JUNCTION     0.34     1.95     8.44     0  01:58        1.95
  YS02001774           JUNCTION     0.40     2.01     8.43     0  01:58        1.99
  YS02001779           JUNCTION     0.23     1.68     8.37     0  01:57        1.68
  YS02001783           JUNCTION     0.35     1.40     7.54     0  01:56        1.24
  YS02001784           JUNCTION     0.35     1.22     7.29     0  01:56        1.12
  YS02001786           JUNCTION     0.29     0.97     7.00     0  01:56        0.87
  YS02001788           JUNCTION     0.21     0.62     6.60     0  02:00        0.62
  YS02001790           JUNCTION     0.25     0.72     6.37     0  01:58        0.72
  YS02001791           JUNCTION     0.15     0.44     5.91     0  02:03        0.43
  YS02001793           JUNCTION     0.08     0.25     5.08     0  02:09        0.24
  YS02001882           JUNCTION     0.43     1.83     8.55     0  02:12        1.83
  YS02001884           JUNCTION     0.51     1.88     8.50     0  02:12        1.88
  YS02001887           JUNCTION     0.59     1.87     8.41     0  01:55        1.84
  YS02001890           JUNCTION     0.61     1.81     8.32     0  01:55        1.81
  YS02001895           JUNCTION     0.40     1.58     8.33     0  02:11        1.57
  YS02001898           JUNCTION     0.41     1.73     8.46     0  02:12        1.73
  YS02001901           JUNCTION     0.51     1.78     8.39     0  02:12        1.78
  YS02001904           JUNCTION     0.49     1.76     8.39     0  02:12        1.76
  YS02001907           JUNCTION     0.79     1.96     8.25     0  01:56        1.96
  YS02001910           JUNCTION     0.61     1.99     8.49     0  01:57        1.92
  YS02001915           JUNCTION     0.44     1.93     8.65     0  01:57        1.84
  YS02001918           JUNCTION     0.27     1.81     8.88     0  01:57        1.53
  YS02001920           JUNCTION     0.35     2.14     9.15     0  01:57        1.62
  YS02001923           JUNCTION     0.21     2.03     9.29     0  01:57        1.39
  YS02001926           JUNCTION     0.23     1.90     9.35     0  01:57        1.21
  YS02001929           JUNCTION     0.14     1.78     9.47     0  01:57        0.99
  YS02006553           JUNCTION     0.79     2.00     8.29     0  01:56        1.97
  YS02006556           JUNCTION     0.76     2.02     8.33     0  01:56        1.96
  YS02006558           JUNCTION     0.80     2.07     8.34     0  01:56        2.00
  YS02006561           JUNCTION     0.22     1.12     7.78     0  01:56        0.90
  YS02163301           JUNCTION     0.62     2.02     8.53     0  02:12        2.02
  YS02163601           JUNCTION     0.69     2.08     8.48     0  02:09        2.08
  YS02164001           JUNCTION     0.61     2.10     8.56     0  02:12        2.10
  CC-1                 OUTFALL      0.00     0.00     0.00     0  00:00        0.00
  CC-2                 OUTFALL      0.00     0.00     0.00     0  00:00        0.00
  JK-1                 OUTFALL      0.00     0.00     0.00     0  00:00        0.00
  JK-2                 OUTFALL      0.00     0.00     0.00     0  00:00        0.00
  WSC                  OUTFALL      0.16     0.28     0.95     0  02:23        0.28
  CC-storage           STORAGE      0.39     1.06     6.56     0  02:34        1.06
  JK-storage           STORAGE      0.11     2.99     3.79     0  00:00        0.68
  
  
  *******************
  Node Inflow Summary
  *******************
  
  -------------------------------------------------------------------------------------------------
                                  Maximum  Maximum                  Lateral       Total        Flow
                                  Lateral    Total  Time of Max      Inflow      Inflow     Balance
                                   Inflow   Inflow   Occurrence      Volume      Volume       Error
  Node                 Type           LPS      LPS  days hr:min    10^6 ltr    10^6 ltr     Percent
  -------------------------------------------------------------------------------------------------
  WS02003060           JUNCTION     16.53   503.74     0  02:21       0.471        3.88       0.047
  WS02003066           JUNCTION      0.00   487.03     0  02:21           0        3.41       0.039
  WS02003067           JUNCTION      0.00   486.92     0  02:20           0        3.42       0.116
  WS02003069           JUNCTION      0.32   503.91     0  02:21     0.00912        3.89       0.091
  WS02003072           JUNCTION      0.00   503.46     0  02:22           0        3.89       0.168
  WS02003073           JUNCTION      1.82   505.01     0  02:23      0.0519        3.93       0.126
  WS02004401           JUNCTION      0.00   489.25     0  02:14           0        3.51       0.286
  WS02004402           JUNCTION      0.00   489.74     0  02:14           0         3.5       0.290
  WS02004403           JUNCTION      0.00   490.42     0  02:14           0        3.49       0.285
  WS02004404           JUNCTION      0.16   501.26     0  02:14     0.00462        3.49       0.197
  WS02004405           JUNCTION      0.04   546.39     0  02:14     0.00109        3.48       0.319
  WS02004406           JUNCTION      0.00   491.62     0  02:14           0        3.47       0.597
  WS02004407           JUNCTION      0.00   488.23     0  02:19           0        3.45       0.024
  WS02004409           JUNCTION      0.00   487.86     0  02:19           0        3.45       0.064
  WS02004410           JUNCTION      0.00   487.83     0  02:19           0        3.45       0.117
  WS02004411           JUNCTION      0.00   487.42     0  02:20           0        3.44       0.151
  WS02004412           JUNCTION      0.00   487.54     0  02:20           0        3.44       0.203
  WS02004413           JUNCTION      0.00   487.32     0  02:20           0        3.43       0.383
  WS02006109           JUNCTION      1.23   492.05     0  02:16      0.0351        3.56       0.206
  WS02006110           JUNCTION      0.00   492.16     0  02:12           0        3.55       0.179
  WS02006111           JUNCTION      0.00   506.29     0  02:15           0        3.54       0.030
  WS02006112           JUNCTION      0.00   492.23     0  02:13           0        3.54       0.569
  WS02006113           JUNCTION      0.00   491.54     0  02:17           0        3.54       0.038
  WS02006115           JUNCTION      0.00   496.98     0  02:09           0        3.52       0.193
  WS02006116           JUNCTION      0.00   489.57     0  02:13           0        3.51       0.075
  WS02006228           JUNCTION      0.00   491.43     0  02:16           0        3.52       0.063
  WS02006229           JUNCTION      0.00   490.63     0  02:16           0        3.53       0.146
  WS02006230           JUNCTION     10.28   536.12     0  02:05       0.293        3.53       0.146
  WS02006231           JUNCTION      0.00   536.58     0  02:05           0        3.24      -0.057
  WS02006232           JUNCTION      0.00   532.86     0  02:05           0        3.25       0.269
  WS02006234           JUNCTION      0.00   535.73     0  02:17           0        3.23      -0.426
  WS02006235           JUNCTION      0.00   573.28     0  01:53           0        3.29       0.013
  WS02006238           JUNCTION      0.00   423.94     0  02:28           0        2.96      -0.073
  WS02006239           JUNCTION      0.00   419.48     0  01:58           0        2.91      -0.281
  WS02006240           JUNCTION      0.00   416.27     0  02:39           0         2.9      -0.124
  WS02006242           JUNCTION      0.00   418.82     0  02:39           0        2.89       0.022
  WS02006243           JUNCTION      0.00   419.69     0  02:39           0         2.9       0.052
  WS02006245           JUNCTION      0.00   418.65     0  02:30           0        2.91       0.488
  WS02006247           JUNCTION      0.00   420.45     0  02:30           0        2.91      -0.016
  WS02006248           JUNCTION      0.00   421.05     0  02:30           0        2.92       0.077
  WS02006249           JUNCTION      0.00   480.28     0  01:49           0        2.94       0.429
  WS02006251           JUNCTION      0.08   401.97     0  02:30     0.00219        2.94      -0.039
  WS02006252           JUNCTION      0.00   400.00     0  00:00           0        2.93      -0.052
  WS02006256           JUNCTION      0.00   331.61     0  01:50           0       0.573     -12.720
  WSF200               JUNCTION      0.00   487.00     0  02:21           0        3.41       0.010
  YS02001580           JUNCTION      0.00   128.98     0  01:53           0     0.00421      -1.667
  YS02001583           JUNCTION      0.00   172.55     0  01:53           0      0.0151      -4.801
  YS02001586           JUNCTION    802.16   802.16     0  02:04        1.77        1.78       0.076
  YS02001590           JUNCTION      0.00   318.91     0  02:11           0        1.34      -0.032
  YS02001593           JUNCTION      0.00   319.00     0  02:12           0        1.35       0.020
  YS02001596           JUNCTION      0.00   317.98     0  02:11           0        1.34       0.008
  YS02001600           JUNCTION      0.00   318.07     0  02:12           0        1.34       0.020
  YS02001601           JUNCTION   1463.01  1780.34     0  02:03        2.44        3.78       0.026
  YS02001602           JUNCTION      0.00   521.35     0  01:53           0        2.31       0.026
  YS02001605           JUNCTION      0.00   521.15     0  01:53           0        2.21       0.028
  YS02001607           JUNCTION      0.00   521.19     0  01:53           0        2.21       0.093
  YS02001610           JUNCTION      0.00   799.20     0  02:04           0         2.5       0.096
  YS02001613           JUNCTION      0.00   523.00     0  01:53           0        2.06       0.087
  YS02001616           JUNCTION      0.00   526.19     0  01:53           0        2.06       0.028
  YS02001619           JUNCTION   1430.30  1430.30     0  02:03        2.84        4.62       0.002
  YS02001622           JUNCTION      0.00   982.61     0  02:01           0        4.33       0.005
  YS02001625           JUNCTION      0.00  1371.46     0  02:05           0        4.51       0.200
  YS02001629           JUNCTION      0.00   970.22     0  02:22           0        3.74       0.025
  YS02001633           JUNCTION   1099.64  1402.63     0  01:56        1.78        5.26       0.069
  YS02001641           JUNCTION      0.00  1401.71     0  01:56           0        5.01       0.058
  YS02001644           JUNCTION    987.08  1838.42     0  01:56        1.55        6.55       0.052
  YS02001647           JUNCTION      0.00  1837.50     0  01:56           0        6.12       0.009
  YS02001649           JUNCTION      0.00  2134.79     0  01:56           0        7.54       0.007
  YS02001652           JUNCTION      0.00   996.81     0  02:02           0        1.42      -0.061
  YS02001655           JUNCTION      0.15   996.06     0  02:02     0.00439        1.42       0.034
  YS02001658           JUNCTION      0.00   996.05     0  02:02           0        1.41      -0.011
  YS02001661           JUNCTION      0.00   994.67     0  02:02           0        1.41       0.022
  YS02001664           JUNCTION    972.78   972.78     0  02:02        1.41        1.41      -0.011
  YS02001745           JUNCTION    624.19   624.19     0  02:02       0.854       0.854       0.124
  YS02001748           JUNCTION      0.04   641.62     0  02:01     0.00128       0.855      -0.181
  YS02001751           JUNCTION      0.01   641.64     0  02:01    0.000313       0.862       0.048
  YS02001754           JUNCTION      0.26   642.41     0  02:01     0.00741       0.874      -0.118
  YS02001757           JUNCTION      0.00  3493.69     0  02:02           0        11.2       0.060
  YS02001759           JUNCTION    865.95  1441.44     0  02:01        1.18        2.78       0.000
  YS02001762           JUNCTION      0.00   828.59     0  02:07           0         1.6       0.015
  YS02001765           JUNCTION      0.00   827.64     0  02:07           0         1.6       0.015
  YS02001767           JUNCTION      0.54   826.85     0  02:07      0.0152         1.6       0.014
  YS02001770           JUNCTION   1218.26  1218.26     0  02:02         1.8        1.84       0.009
  YS02001774           JUNCTION      0.00   652.59     0  02:02           0       0.274       0.461
  YS02001779           JUNCTION      0.01   652.43     0  02:02    0.000142       0.233      -0.211
  YS02001783           JUNCTION      0.00  1168.04     0  01:59           0        4.05       0.007
  YS02001784           JUNCTION      1.06  1169.58     0  01:59      0.0302        4.08       0.015
  YS02001786           JUNCTION      0.06  1169.99     0  01:59      0.0016        4.08       0.018
  YS02001788           JUNCTION      0.07  1169.95     0  01:59     0.00202        4.08       0.007
  YS02001790           JUNCTION      0.15  1182.77     0  02:00     0.00442        4.09       0.001
  YS02001791           JUNCTION      0.00  1284.79     0  02:03           0        4.09      -0.001
  YS02001793           JUNCTION      0.00  1253.33     0  01:58           0        4.09      -0.041
  YS02001882           JUNCTION      0.00    61.57     0  01:55           0      0.0128       5.369
  YS02001884           JUNCTION      0.00    78.26     0  01:54           0      0.0487       5.340
  YS02001887           JUNCTION    944.90   945.01     0  02:01        1.23        1.27       0.353
  YS02001890           JUNCTION      0.00   945.55     0  02:01           0        1.22       0.422
  YS02001895           JUNCTION      0.00   517.32     0  02:06           0        1.08       0.152
  YS02001898           JUNCTION      0.00   517.53     0  02:06           0        1.07       0.026
  YS02001901           JUNCTION      0.00   517.60     0  02:06           0        1.08       0.316
  YS02001904           JUNCTION      0.00   517.75     0  02:06           0        1.08       0.255
  YS02001907           JUNCTION      0.00  2195.25     0  02:02           0        3.77       0.479
  YS02001910           JUNCTION      0.00  1596.60     0  02:02           0        2.69       0.268
  YS02001915           JUNCTION   1064.45  1596.81     0  02:02        1.71        2.73       0.058
  YS02001918           JUNCTION      0.00   532.95     0  02:02           0        1.05       0.031
  YS02001920           JUNCTION      2.87   532.81     0  02:02      0.0818        1.03       0.096
  YS02001923           JUNCTION      0.04   529.78     0  02:02     0.00107       0.938      -0.078
  YS02001926           JUNCTION      0.05   621.14     0  01:57     0.00149       0.916      -0.045
  YS02001929           JUNCTION    514.85   514.85     0  02:03         0.9       0.903      -0.034
  YS02006553           JUNCTION      0.00   799.22     0  02:19           0        2.32       0.517
  YS02006556           JUNCTION      0.00   798.90     0  02:19           0        2.33       0.352
  YS02006558           JUNCTION   1252.07  1252.07     0  02:02         1.8        4.09       0.086
  YS02006561           JUNCTION      0.00  1182.59     0  01:56           0        4.05      -0.001
  YS02163301           JUNCTION      0.00   970.35     0  02:22           0        3.73       0.047
  YS02163601           JUNCTION      0.11  1402.23     0  01:56     0.00313        5.01       0.103
  YS02164001           JUNCTION      0.00  1401.81     0  01:56           0        5.01       0.051
  CC-1                 OUTFALL       0.00   683.00     0  00:00           0           5       0.000
  CC-2                 OUTFALL       0.00   683.00     0  00:00           0           5       0.000
  JK-1                 OUTFALL       0.00  1000.00     0  00:00           0        1.87       0.000
  JK-2                 OUTFALL       0.00  1000.00     0  00:00           0        1.87       0.000
  WSC                  OUTFALL       0.00   504.78     0  02:23           0        3.93       0.000
  CC-storage           STORAGE       0.00  3492.98     0  02:02           0        13.4      -0.327
  JK-storage           STORAGE       0.00  1393.30     0  02:09           0        4.24      -1.656
  
  
  **********************
  Node Surcharge Summary
  **********************
  
  Surcharging occurs when water rises above the top of the highest conduit.
  ---------------------------------------------------------------------
                                               Max. Height   Min. Depth
                                   Hours       Above Crown    Below Rim
  Node                 Type      Surcharged         Meters       Meters
  ---------------------------------------------------------------------
  WS02006109           JUNCTION        1.57          0.103        1.717
  WS02006112           JUNCTION        0.32          0.027        1.653
  WS02006228           JUNCTION        1.55          0.128        2.072
  WS02006229           JUNCTION        1.58          0.149        2.301
  WS02006231           JUNCTION        0.10          0.611        0.919
  WS02006232           JUNCTION        1.67          1.480        0.000
  WS02006234           JUNCTION        0.76          1.240        0.000
  WS02006235           JUNCTION        1.46          1.290        0.000
  WS02006238           JUNCTION        1.62          1.430        0.000
  WS02006239           JUNCTION        1.55          1.290        0.000
  WS02006240           JUNCTION        1.58          1.390        0.000
  WS02006242           JUNCTION        1.69          0.820        0.000
  WS02006243           JUNCTION        1.60          0.770        0.000
  WS02006245           JUNCTION        1.60          0.811        0.039
  WS02006247           JUNCTION        1.62          0.713        0.047
  WS02006248           JUNCTION        1.59          0.380        0.000
  WS02006249           JUNCTION        1.61          0.390        0.000
  WS02006251           JUNCTION        0.48          0.192        0.988
  WS02006252           JUNCTION        2.03          1.100        0.000
  WS02006256           JUNCTION        4.29          2.050        0.000
  YS02001580           JUNCTION        0.64          0.450        0.000
  YS02001583           JUNCTION        0.64          0.473        0.027
  YS02001586           JUNCTION        0.73          0.510        0.000
  YS02001590           JUNCTION        0.81          0.750        0.000
  YS02001593           JUNCTION        0.81          0.711        0.129
  YS02001596           JUNCTION        0.92          0.947        0.123
  YS02001600           JUNCTION        1.09          1.190        0.000
  YS02001601           JUNCTION        1.45          1.440        0.000
  YS02001602           JUNCTION        1.35          1.270        0.000
  YS02001605           JUNCTION        1.30          1.180        0.000
  YS02001607           JUNCTION        0.73          0.680        0.000
  YS02001610           JUNCTION        0.76          0.680        0.000
  YS02001613           JUNCTION        0.73          0.682        0.018
  YS02001616           JUNCTION        0.68          0.610        0.000
  YS02001619           JUNCTION        0.66          0.610        0.000
  YS02001622           JUNCTION        0.65          0.581        0.039
  YS02001625           JUNCTION        0.86          0.780        0.000
  YS02001629           JUNCTION        0.55          0.470        0.000
  YS02001633           JUNCTION        0.86          1.026        0.034
  YS02001641           JUNCTION        0.74          1.100        0.000
  YS02001644           JUNCTION        0.67          0.920        0.000
  YS02001647           JUNCTION        0.42          0.810        0.090
  YS02001649           JUNCTION        0.46          1.050        0.000
  YS02001652           JUNCTION        0.34          1.130        0.000
  YS02001655           JUNCTION        0.26          1.200        0.000
  YS02001658           JUNCTION        0.18          1.202        0.098
  YS02001661           JUNCTION        0.05          0.561        0.829
  YS02001745           JUNCTION        0.01          0.448        0.902
  YS02001748           JUNCTION        0.11          1.144        0.046
  YS02001751           JUNCTION        0.20          1.050        0.150
  YS02001754           JUNCTION        0.25          0.946        0.204
  YS02001757           JUNCTION        0.44          1.152        0.058
  YS02001759           JUNCTION        0.39          1.133        0.077
  YS02001762           JUNCTION        0.38          1.097        0.053
  YS02001765           JUNCTION        0.35          1.066        0.034
  YS02001767           JUNCTION        0.34          1.015        0.015
  YS02001770           JUNCTION        0.33          0.920        0.000
  YS02001774           JUNCTION        0.38          1.013        0.037
  YS02001779           JUNCTION        0.28          0.680        0.000
  YS02001783           JUNCTION        0.56          0.596        1.004
  YS02001784           JUNCTION        0.53          0.424        1.066
  YS02001786           JUNCTION        0.43          0.172        1.258
  YS02001882           JUNCTION        0.50          0.830        0.000
  YS02001884           JUNCTION        0.51          0.820        0.050
  YS02001887           JUNCTION        0.55          0.823        0.127
  YS02001890           JUNCTION        0.56          0.760        0.000
  YS02001895           JUNCTION        0.49          0.582        0.168
  YS02001898           JUNCTION        0.48          0.700        0.040
  YS02001901           JUNCTION        0.53          0.782        0.088
  YS02001904           JUNCTION        0.52          0.760        0.090
  YS02001907           JUNCTION        0.77          0.950        0.000
  YS02001910           JUNCTION        0.59          0.987        0.113
  YS02001915           JUNCTION        0.50          0.933        0.067
  YS02001918           JUNCTION        0.42          0.810        0.000
  YS02001920           JUNCTION        0.43          1.140        0.000
  YS02001923           JUNCTION        0.14          0.820        0.000
  YS02001926           JUNCTION        0.16          0.900        0.000
  YS02001929           JUNCTION        0.01          0.780        0.000
  YS02006553           JUNCTION        0.79          1.005        0.185
  YS02006556           JUNCTION        0.68          0.983        0.367
  YS02006558           JUNCTION        0.66          0.972        0.428
  YS02006561           JUNCTION        0.38          0.318        0.832
  YS02163301           JUNCTION        0.84          1.016        0.014
  YS02163601           JUNCTION        0.89          1.080        0.000
  YS02164001           JUNCTION        0.76          1.100        0.000
  
  
  *********************
  Node Flooding Summary
  *********************
  
  Flooding refers to all water that overflows a node, whether it ponds or not.
  --------------------------------------------------------------------------
                                                             Total   Maximum
                                 Maximum   Time of Max       Flood    Ponded
                        Hours       Rate    Occurrence      Volume     Depth
  Node                 Flooded       LPS   days hr:min    10^6 ltr    Meters
  --------------------------------------------------------------------------
  WS02006232              0.01     15.75      0  02:12       0.000     0.000
  WS02006234              0.01     13.02      0  02:12       0.000     0.000
  WS02006235              0.01     23.00      0  02:12       0.000     0.000
  WS02006238              0.01     17.94      0  02:12       0.000     0.000
  WS02006239              0.01     13.16      0  02:09       0.000     0.000
  WS02006240              0.01     29.87      0  02:12       0.000     0.000
  WS02006242              0.01     31.77      0  02:12       0.000     0.000
  WS02006243              0.01      6.92      0  02:23       0.000     0.000
  WS02006248              0.15     24.70      0  02:16       0.007     0.000
  WS02006249              0.21     22.85      0  02:12       0.004     0.000
  WS02006252              0.01    245.63      0  00:00       0.000     0.000
  WS02006256              0.53    308.37      0  01:50       0.322     0.000
  YS02001580              0.01    101.76      0  01:53       0.000     0.000
  YS02001586              0.52    484.58      0  02:03       0.426     0.000
  YS02001590              0.01      6.88      0  01:53       0.000     0.000
  YS02001600              0.01      1.24      0  01:53       0.000     0.000
  YS02001601              0.65   1382.51      0  02:03       1.471     0.000
  YS02001602              0.48     64.12      0  02:11       0.097     0.000
  YS02001605              0.01      2.23      0  02:11       0.000     0.000
  YS02001607              0.01      7.65      0  02:11       0.000     0.000
  YS02001610              0.43    799.07      0  02:04       0.719     0.000
  YS02001616              0.01     11.57      0  02:11       0.000     0.000
  YS02001619              0.01      8.09      0  02:11       0.000     0.000
  YS02001625              0.35   1371.43      0  02:05       1.009     0.000
  YS02001629              0.14    305.72      0  02:00       0.080     0.000
  YS02001641              0.01      0.81      0  02:12       0.000     0.000
  YS02001644              0.17   1147.34      0  02:02       0.420     0.000
  YS02001649              0.01     34.09      0  01:59       0.000     0.000
  YS02001652              0.01      7.94      0  01:59       0.000     0.000
  YS02001655              0.01     17.61      0  01:59       0.000     0.000
  YS02001770              0.01     21.52      0  01:58       0.000     0.000
  YS02001779              0.16    652.32      0  02:02       0.215     0.000
  YS02001882              0.01      0.33      0  02:12       0.000     0.000
  YS02001890              0.20    430.80      0  02:01       0.143     0.000
  YS02001907              0.36   2194.63      0  02:02       1.460     0.000
  YS02001918              0.01    223.13      0  01:57       0.002     0.000
  YS02001920              0.01     74.91      0  01:57       0.000     0.000
  YS02001923              0.01    336.03      0  01:57       0.002     0.000
  YS02001926              0.01    135.44      0  01:57       0.001     0.000
  YS02001929              0.01    169.38      0  01:57       0.000     0.000
  YS02163601              0.01      0.70      0  02:12       0.000     0.000
  YS02164001              0.01      0.93      0  02:12       0.000     0.000
  
  
  **********************
  Storage Volume Summary
  **********************
  
  ------------------------------------------------------------------------------------------------
                         Average    Avg   Evap  Exfil     Maximum    Max    Time of Max    Maximum
                          Volume   Pcnt   Pcnt   Pcnt      Volume   Pcnt     Occurrence    Outflow
  Storage Unit           1000 m³   Full   Loss   Loss     1000 m³   Full    days hr:min        LPS
  ------------------------------------------------------------------------------------------------
  CC-storage               1.085   16.9    0.0    0.0       2.968   46.3       0  02:34    1783.53
  JK-storage               0.006    1.9    0.0    0.0       0.150   51.6       0  00:00    2300.00
  
  
  ***********************
  Outfall Loading Summary
  ***********************
  
  -----------------------------------------------------------
                         Flow       Avg       Max       Total
                         Freq      Flow      Flow      Volume
  Outfall Node           Pcnt       LPS       LPS    10^6 ltr
  -----------------------------------------------------------
  CC-1                  49.47    683.00    683.00       5.005
  CC-2                  49.47    683.00    683.00       5.005
  JK-1                  14.15   1000.00   1000.00       1.871
  JK-2                  14.15   1000.00   1000.00       1.871
  WSC                   99.93    205.61    504.78       3.926
  -----------------------------------------------------------
  System                45.44   3571.61   3870.78      17.679
  
  
  ********************
  Link Flow Summary
  ********************
  
  -----------------------------------------------------------------------------
                                 Maximum  Time of Max   Maximum    Max/    Max/
                                  |Flow|   Occurrence   |Veloc|    Full    Full
  Link                 Type          LPS  days hr:min     m/sec    Flow   Depth
  -----------------------------------------------------------------------------
  1                    CONDUIT    504.78     0  02:23      2.75    0.18    0.28
  WS02003060WS02003069 CONDUIT    503.59     0  02:21      1.60    0.20    0.32
  WS02003066WSF200     CONDUIT    487.00     0  02:21      2.78    0.08    0.21
  WS02003067WS02003066 CONDUIT    487.03     0  02:21      1.14    0.16    0.40
  WS02003069WS02003072 CONDUIT    503.46     0  02:22      1.33    0.24    0.37
  WS02003072WS02003073 CONDUIT    503.19     0  02:23      1.39    1.09    0.36
  WS02004401WS02004402 CONDUIT    489.74     0  02:14      1.22    0.59    0.84
  WS02004402WS02004403 CONDUIT    490.42     0  02:14      1.24    0.70    0.87
  WS02004403WS02004404 CONDUIT    501.10     0  02:14      1.24    0.36    0.92
  WS02004404WS02004405 CONDUIT    546.35     0  02:14      1.45    5.35    0.94
  WS02004405WS02004406 CONDUIT    491.62     0  02:14      1.46    0.97    0.93
  WS02004406WS02004407 CONDUIT    488.23     0  02:19      0.98    0.22    0.61
  WS02004407WS02004409 CONDUIT    487.86     0  02:19      1.59    0.17    0.46
  WS02004409WS02004410 CONDUIT    487.83     0  02:19      1.06    0.63    0.64
  WS02004410WS02004411 CONDUIT    487.42     0  02:20      1.13    0.67    0.65
  WS02004411WS02004412 CONDUIT    487.54     0  02:20      1.20    0.69    0.66
  WS02004412WS02004413 CONDUIT    487.32     0  02:20      1.22    0.33    0.75
  WS02004413WS02003067 CONDUIT    486.92     0  02:20      1.05    0.21    0.57
  WS02006109WS02006110 CONDUIT    492.16     0  02:12      0.98    0.95    0.99
  WS02006110WS02006113 CONDUIT    491.54     0  02:17      1.19    0.45    0.77
  WS02006111WS02006112 CONDUIT    492.23     0  02:13      1.95    0.23    0.66
  WS02006112WS02006115 CONDUIT    496.98     0  02:09      0.82    0.29    0.86
  WS02006113WS02006111 CONDUIT    506.29     0  02:15      2.38    0.61    0.44
  WS02006115WS02006116 CONDUIT    489.57     0  02:13      1.29    0.63    0.74
  WS02006116WS02004401 CONDUIT    489.25     0  02:14      1.21    0.67    0.82
  WS02006228WS02006109 CONDUIT    490.82     0  02:16      1.06    2.14    1.00
  WS02006229WS02006228 CONDUIT    491.43     0  02:16      1.12    1.63    1.00
  WS02006230WS02006229 CONDUIT    490.63     0  02:16      1.27   10.92    1.00
  WS02006231WS02006230 CONDUIT    525.84     0  02:05      1.41    7.98    0.95
  WS02006232WS02006231 CONDUIT    536.58     0  02:05      1.40    1.12    1.00
  WS02006234WS02006232 CONDUIT    532.86     0  02:05      1.39    1.08    1.00
  WS02006235WS02006234 CONDUIT    535.73     0  02:17      1.39    5.65    1.00
  WS02006238WS02006235 CONDUIT    441.41     0  02:26      1.45    0.99    1.00
  WS02006239WS02006238 CONDUIT    423.94     0  02:28      1.14    1.36    1.00
  WS02006240WS02006239 CONDUIT    419.48     0  01:58      1.24    1.32    1.00
  WS02006242WS02006240 CONDUIT    416.27     0  02:39      1.16    1.65    1.00
  WS02006243WS02006242 CONDUIT    418.82     0  02:39      1.44    0.89    1.00
  WS02006245WS02006243 CONDUIT    419.69     0  02:39      1.45    1.24    1.00
  WS02006247WS02006245 CONDUIT    418.65     0  02:30      1.43    3.32    1.00
  WS02006248WS02006247 CONDUIT    420.45     0  02:30      1.43    0.92    1.00
  WS02006249WS02006248 CONDUIT    421.05     0  02:30      1.38    2.31    1.00
  WS02006251WS02006249 CONDUIT    480.28     0  01:49      2.01    1.38    1.00
  WS02006252WS02006251 CONDUIT    401.90     0  02:30     25.33    1.48    1.00
  WS02006256WS02006235 CONDUIT    288.91     0  00:00      4.23    3.06    1.00
  WSF200WS02003060     CONDUIT    487.22     0  02:21      2.01    0.11    0.27
  YS02001580YS02001583 CONDUIT    128.98     0  01:53      0.68    0.50    1.00
  YS02001583YS02001586 CONDUIT    163.17     0  01:53      0.68    0.25    1.00
  YS02001586YS02001590 CONDUIT    318.91     0  02:11      1.27    0.56    1.00
  YS02001590YS02001593 CONDUIT    319.00     0  02:12      1.13    2.00    1.00
  YS02001593YS02001596 CONDUIT    317.98     0  02:11      1.77    0.50    1.00
  YS02001596YS02001600 CONDUIT    318.07     0  02:12      1.24    0.62    1.00
  YS02001600YS02001601 CONDUIT    318.24     0  02:12      1.13    0.55    1.00
  YS02001601YS02001602 CONDUIT    521.35     0  01:53      1.84    1.88    1.00
  YS02001602YS02001605 CONDUIT    521.15     0  01:53      1.84   11.03    1.00
  YS02001605YS02001607 CONDUIT    521.19     0  01:53      1.84    2.86    1.00
  YS02001607YS02001610 CONDUIT    521.56     0  01:53      0.66    0.50    1.00
  YS02001610YS02001613 CONDUIT    523.00     0  01:53      0.67    0.60    1.00
  YS02001613YS02001616 CONDUIT    526.19     0  01:53      0.67    0.45    1.00
  YS02001616YS02001619 CONDUIT    512.65     0  01:53      0.67    0.89    1.00
  YS02001619YS02001622 CONDUIT    982.61     0  02:01      1.25    1.45    1.00
  YS02001622YS02001625 CONDUIT    982.37     0  02:01      1.25    0.52    1.00
  YS02001625YS02001629 CONDUIT    970.22     0  02:22      1.24    0.46    1.00
  YS02001629YS02163301 CONDUIT    970.35     0  02:22      1.24    1.19    1.00
  YS02001633YS02163601 CONDUIT   1402.12     0  01:56      1.79    1.47    1.00
  YS02001641YS02001644 CONDUIT   1401.01     0  01:56      1.78    4.53    1.00
  YS02001644YS02001647 CONDUIT   1837.50     0  01:56      2.34    1.08    1.00
  YS02001647YS02001649 CONDUIT   1857.23     0  01:56      2.36    0.98    1.00
  YS02001649YS02001757 CONDUIT   2140.50     0  01:56      2.73    1.30    1.00
  YS02001652YS02001649 CONDUIT    996.60     0  02:02      1.27    0.49    1.00
  YS02001655YS02001652 CONDUIT    996.81     0  02:02      1.33    0.48    1.00
  YS02001658YS02001655 CONDUIT    995.91     0  02:02      1.92    0.42    1.00
  YS02001661YS02001658 CONDUIT    996.05     0  02:02      2.36    0.39    1.00
  YS02001664YS02001661 CONDUIT    994.67     0  02:02      2.40    0.31    0.92
  YS02001745YS02001748 CONDUIT    641.58     0  02:01      2.26    0.25    1.00
  YS02001748YS02001751 CONDUIT    641.63     0  02:01      1.77    0.32    1.00
  YS02001751YS02001754 CONDUIT    642.15     0  02:01      1.44    0.31    1.00
  YS02001754YS02001757 CONDUIT    642.72     0  02:01      0.82    0.26    1.00
  YS02001757CaochengTiaoxuchi CONDUIT   3492.98     0  02:02      6.35    1.51    0.99
  YS02001759YS02001757 CONDUIT   1441.96     0  02:00      1.84    1.02    1.00
  YS02001762YS02001759 CONDUIT    829.17     0  02:07      1.06    0.96    1.00
  YS02001765YS02001762 CONDUIT    828.59     0  02:07      1.05    0.78    1.00
  YS02001767YS02001765 CONDUIT    827.64     0  02:07      1.05    1.04    1.00
  YS02001770YS02001767 CONDUIT    826.32     0  02:07      1.05    3.27    1.00
  YS02001774YS02001770 CONDUIT    652.59     0  02:02      0.83    0.42    1.00
  YS02001779YS02001774 CONDUIT    652.43     0  02:02      0.83    0.33    1.00
  YS02001783YS02001784 CONDUIT   1168.52     0  01:59      2.32    1.61    1.00
  YS02001784YS02001785 CONDUIT   1169.93     0  01:59      2.33    2.72    1.00
  YS02001786YS02001788 CONDUIT   1169.88     0  01:59      2.50    2.25    0.89
  YS02001788YS02001790 CONDUIT   1182.62     0  02:00      2.73    0.87    0.84
  YS02001790YS02001791 CONDUIT   1284.79     0  02:03      3.42    1.40    0.71
  YS02001791YS02001793 CONDUIT   1253.33     0  01:58      6.78    0.54    0.43
  YS02001793JiankangQianchi CONDUIT   1393.30     0  02:09     15.32    0.11    0.50
  YS02001882YS02001884 CONDUIT     61.57     0  01:55      0.13    0.07    1.00
  YS02001884YS02001887 CONDUIT     78.26     0  01:54      0.10    0.10    1.00
  YS02001887YS02001890 CONDUIT    945.55     0  02:01      1.20    1.62    1.00
  YS02001890YS02001895 CONDUIT    517.32     0  02:06      0.66    0.24    1.00
  YS02001895YS02001898 CONDUIT    517.53     0  02:06      0.66    0.90    1.00
  YS02001898YS02001901 CONDUIT    517.60     0  02:06      0.66    0.33    1.00
  YS02001901YS02001904 CONDUIT    517.75     0  02:06      0.66    0.80    1.00
  YS02001904YS02001907 CONDUIT    517.93     0  02:06      0.66    0.18    1.00
  YS02001907YS02006553 CONDUIT    799.22     0  02:19      0.89    0.94    1.00
  YS02001910YS02001907 CONDUIT   1597.05     0  02:02      2.03    0.90    1.00
  YS02001915YS02001910 CONDUIT   1596.60     0  02:02      2.03    0.79    1.00
  YS02001918YS02001915 CONDUIT    532.91     0  02:02      0.68    0.29    1.00
  YS02001920YS02001918 CONDUIT    532.95     0  02:02      0.68    0.52    1.00
  YS02001923YS02001920 CONDUIT    529.94     0  02:02      0.70    0.24    1.00
  YS02001926YS02001923 CONDUIT    529.74     0  02:02      0.96    0.76    1.00
  YS02001929YS02001926 CONDUIT    529.07     0  02:02      1.13    0.25    1.00
  YS02006553YS02006556 CONDUIT    798.90     0  02:19      1.02    0.68    1.00
  YS02006556YS02006558 CONDUIT    800.01     0  02:19      1.02    0.63    1.00
  YS02006558YS02006561 CONDUIT   1182.59     0  01:56      4.18    2.61    1.00
  YS02006561YS02001783 CONDUIT   1168.04     0  01:59      2.32    0.60    1.00
  YS02163301YS02001633 CONDUIT    970.64     0  02:22      1.24    0.91    1.00
  YS02163601YS02164001 CONDUIT   1401.81     0  01:56      1.78    1.24    1.00
  YS02164001YS02001641 CONDUIT   1401.71     0  01:56      1.78    1.91    1.00
  CC-R1                PUMP       683.00     0  00:00              1.00
  CC-R2                PUMP       683.00     0  00:00              1.00
  CC-S1                PUMP       200.00     0  00:00              1.00
  CC-S2                PUMP       200.00     0  00:00              1.00
  JK-R1                PUMP      1000.00     0  00:00              1.00
  JK-R2                PUMP      1000.00     0  00:00              1.00
  JK-S                 PUMP       300.00     0  00:00              1.00
  
  
  ***************************
  Flow Classification Summary
  ***************************
  
  -------------------------------------------------------------------------------------
                      Adjusted    ---------- Fraction of Time in Flow Class ---------- 
                       /Actual         Up    Down  Sub   Sup   Up    Down  Norm  Inlet 
  Conduit               Length    Dry  Dry   Dry   Crit  Crit  Crit  Crit  Ltd   Ctrl  
  -------------------------------------------------------------------------------------
  1                       1.00   0.00  0.00  0.00  0.00  1.00  0.00  0.00  0.64  0.00
  WS02003060WS02003069    1.00   0.00  0.00  0.00  0.97  0.03  0.00  0.00  0.77  0.00
  WS02003066WSF200        1.00   0.05  0.00  0.00  0.00  0.95  0.00  0.00  0.92  0.00
  WS02003067WS02003066    1.00   0.05  0.00  0.00  0.95  0.00  0.00  0.00  0.00  0.00
  WS02003069WS02003072    1.00   0.00  0.00  0.00  0.99  0.01  0.00  0.00  0.79  0.00
  WS02003072WS02003073    1.00   0.00  0.00  0.00  0.00  0.00  0.00  1.00  0.00  0.00
  WS02004401WS02004402    1.00   0.02  0.00  0.00  0.98  0.00  0.00  0.00  0.00  0.00
  WS02004402WS02004403    1.00   0.02  0.00  0.00  0.98  0.00  0.00  0.00  0.00  0.00
  WS02004403WS02004404    1.00   0.00  0.03  0.00  0.97  0.00  0.00  0.00  0.00  0.00
  WS02004404WS02004405    1.00   0.00  0.00  0.00  1.00  0.00  0.00  0.00  0.01  0.00
  WS02004405WS02004406    1.00   0.00  0.00  0.00  1.00  0.00  0.00  0.00  0.00  0.00
  WS02004406WS02004407    1.00   0.00  0.03  0.00  0.97  0.00  0.00  0.00  0.00  0.00
  WS02004407WS02004409    1.00   0.03  0.00  0.00  0.95  0.01  0.00  0.00  0.96  0.00
  WS02004409WS02004410    1.00   0.03  0.00  0.00  0.96  0.00  0.00  0.00  0.00  0.00
  WS02004410WS02004411    1.00   0.04  0.00  0.00  0.96  0.00  0.00  0.00  0.00  0.00
  WS02004411WS02004412    1.00   0.04  0.00  0.00  0.96  0.00  0.00  0.00  0.00  0.00
  WS02004412WS02004413    1.00   0.04  0.00  0.00  0.96  0.00  0.00  0.00  0.00  0.00
  WS02004413WS02003067    1.00   0.04  0.01  0.00  0.00  0.00  0.95  0.00  0.00  0.00
  WS02006109WS02006110    1.00   0.00  0.01  0.00  0.98  0.00  0.01  0.00  0.00  0.00
  WS02006110WS02006113    1.00   0.01  0.01  0.00  0.98  0.00  0.00  0.00  0.00  0.00
  WS02006111WS02006112    1.00   0.02  0.00  0.00  0.98  0.00  0.00  0.00  0.98  0.00
  WS02006112WS02006115    1.00   0.02  0.00  0.00  0.97  0.00  0.00  0.00  0.00  0.00
  WS02006113WS02006111    1.00   0.02  0.00  0.00  0.00  0.98  0.00  0.00  0.10  0.00
  WS02006115WS02006116    1.00   0.02  0.00  0.00  0.97  0.00  0.00  0.01  0.00  0.00
  WS02006116WS02004401    1.00   0.02  0.00  0.00  0.98  0.00  0.00  0.00  0.00  0.00
  WS02006228WS02006109    1.00   0.00  0.00  0.00  1.00  0.00  0.00  0.00  0.00  0.00
  WS02006229WS02006228    1.00   0.00  0.00  0.00  0.99  0.00  0.00  0.01  0.00  0.00
  WS02006230WS02006229    1.00   0.00  0.00  0.00  0.99  0.00  0.00  0.01  0.01  0.00
  WS02006231WS02006230    1.00   0.00  0.00  0.00  0.22  0.00  0.78  0.00  0.00  0.00
  WS02006232WS02006231    1.00   0.00  0.00  0.00  0.99  0.00  0.01  0.00  0.00  0.00
  WS02006234WS02006232    1.00   0.00  0.00  0.00  1.00  0.00  0.00  0.00  0.20  0.00
  WS02006235WS02006234    1.00   0.00  0.00  0.00  0.54  0.00  0.46  0.00  0.00  0.00
  WS02006238WS02006235    1.00   0.00  0.00  0.00  1.00  0.00  0.00  0.00  0.01  0.00
  WS02006239WS02006238    1.00   0.00  0.00  0.00  1.00  0.00  0.00  0.00  0.39  0.00
  WS02006240WS02006239    1.00   0.00  0.00  0.00  0.48  0.00  0.00  0.52  0.04  0.00
  WS02006242WS02006240    1.00   0.00  0.00  0.00  0.99  0.00  0.01  0.00  0.00  0.00
  WS02006243WS02006242    1.00   0.00  0.00  0.00  0.99  0.00  0.00  0.01  0.69  0.00
  WS02006245WS02006243    1.00   0.00  0.00  0.00  0.46  0.00  0.00  0.54  0.01  0.00
  WS02006247WS02006245    1.00   0.00  0.00  0.00  0.99  0.00  0.00  0.01  0.00  0.00
  WS02006248WS02006247    1.00   0.00  0.00  0.00  0.99  0.00  0.00  0.01  0.18  0.00
  WS02006249WS02006248    1.00   0.00  0.00  0.00  0.31  0.00  0.69  0.00  0.00  0.00
  WS02006251WS02006249    1.00   0.00  0.00  0.00  1.00  0.00  0.00  0.00  0.70  0.00
  WS02006252WS02006251    1.00   0.00  0.74  0.00  0.06  0.00  0.20  0.00  0.07  0.00
  WS02006256WS02006235    1.00   0.00  0.00  0.00  0.99  0.01  0.00  0.00  0.01  0.00
  WSF200WS02003060        1.00   0.00  0.05  0.00  0.52  0.43  0.00  0.00  0.72  0.00
  YS02001580YS02001583    1.00   0.24  0.57  0.00  0.19  0.00  0.00  0.00  0.66  0.00
  YS02001583YS02001586    1.00   0.41  0.34  0.00  0.25  0.00  0.00  0.00  0.66  0.00
  YS02001586YS02001590    1.00   0.13  0.00  0.00  0.43  0.04  0.00  0.40  0.37  0.00
  YS02001590YS02001593    1.00   0.13  0.01  0.00  0.12  0.00  0.75  0.00  0.00  0.00
  YS02001593YS02001596    1.00   0.14  0.00  0.00  0.14  0.01  0.00  0.72  0.02  0.00
  YS02001596YS02001600    1.00   0.14  0.00  0.00  0.20  0.01  0.00  0.65  0.04  0.00
  YS02001600YS02001601    1.00   0.13  0.01  0.00  0.86  0.00  0.00  0.00  0.60  0.00
  YS02001601YS02001602    1.00   0.13  0.01  0.00  0.86  0.00  0.00  0.00  0.00  0.00
  YS02001602YS02001605    1.00   0.14  0.00  0.00  0.86  0.00  0.00  0.00  0.00  0.00
  YS02001605YS02001607    1.00   0.14  0.00  0.00  0.86  0.00  0.00  0.00  0.00  0.00
  YS02001607YS02001610    1.00   0.13  0.01  0.00  0.86  0.00  0.00  0.00  0.01  0.00
  YS02001610YS02001613    1.00   0.13  0.00  0.00  0.87  0.00  0.00  0.00  0.00  0.00
  YS02001613YS02001616    1.00   0.13  0.00  0.00  0.87  0.00  0.00  0.00  0.00  0.00
  YS02001616YS02001619    1.00   0.13  0.00  0.00  0.87  0.00  0.00  0.00  0.00  0.00
  YS02001619YS02001622    1.00   0.13  0.00  0.00  0.87  0.00  0.00  0.00  0.28  0.00
  YS02001622YS02001625    1.00   0.13  0.00  0.00  0.87  0.00  0.00  0.00  0.04  0.00
  YS02001625YS02001629    1.00   0.13  0.05  0.00  0.16  0.00  0.66  0.00  0.00  0.00
  YS02001629YS02163301    1.00   0.15  0.01  0.00  0.83  0.00  0.00  0.00  0.00  0.00
  YS02001633YS02163601    1.00   0.00  0.01  0.00  0.99  0.00  0.00  0.00  0.15  0.00
  YS02001641YS02001644    1.00   0.00  0.01  0.00  0.99  0.00  0.00  0.00  0.00  0.00
  YS02001644YS02001647    1.00   0.00  0.17  0.00  0.83  0.00  0.00  0.00  0.00  0.00
  YS02001647YS02001649    1.00   0.00  0.17  0.00  0.50  0.33  0.00  0.00  0.56  0.00
  YS02001649YS02001757    1.00   0.00  0.00  0.00  0.64  0.36  0.00  0.00  0.53  0.00
  YS02001652YS02001649    1.00   0.00  0.00  0.00  0.97  0.03  0.00  0.00  0.74  0.00
  YS02001655YS02001652    1.00   0.00  0.00  0.00  0.18  0.01  0.00  0.80  0.09  0.00
  YS02001658YS02001655    1.00   0.00  0.14  0.00  0.61  0.25  0.00  0.00  0.73  0.00
  YS02001661YS02001658    1.00   0.14  0.00  0.00  0.44  0.41  0.00  0.00  0.71  0.00
  YS02001664YS02001661    1.00   0.13  0.00  0.00  0.73  0.14  0.00  0.00  0.85  0.00
  YS02001745YS02001748    1.00   0.00  0.00  0.00  0.04  0.01  0.00  0.95  0.02  0.00
  YS02001748YS02001751    1.00   0.00  0.00  0.00  0.76  0.24  0.00  0.00  0.82  0.00
  YS02001751YS02001754    1.00   0.00  0.00  0.00  0.11  0.01  0.00  0.88  0.04  0.00
  YS02001754YS02001757    1.00   0.00  0.00  0.00  1.00  0.00  0.00  0.00  0.85  0.00
  YS02001757CaochengTiaoxuchi    1.00   0.00  0.00  0.00  0.73  0.27  0.00  0.00  0.77  0.00
  YS02001759YS02001757    1.00   0.00  0.00  0.00  1.00  0.00  0.00  0.00  0.62  0.00
  YS02001762YS02001759    1.00   0.00  0.00  0.00  1.00  0.00  0.00  0.00  0.04  0.00
  YS02001765YS02001762    1.00   0.00  0.00  0.00  1.00  0.00  0.00  0.00  0.73  0.00
  YS02001767YS02001765    1.00   0.00  0.00  0.00  1.00  0.00  0.00  0.00  0.00  0.00
  YS02001770YS02001767    1.00   0.00  0.00  0.00  1.00  0.00  0.00  0.00  0.00  0.00
  YS02001774YS02001770    1.00   0.00  0.13  0.00  0.71  0.00  0.16  0.00  0.03  0.00
  YS02001779YS02001774    1.00   0.00  0.00  0.00  1.00  0.00  0.00  0.00  0.79  0.00
  YS02001783YS02001784    1.00   0.00  0.18  0.00  0.82  0.00  0.00  0.00  0.55  0.00
  YS02001784YS02001785    1.00   0.00  0.00  0.00  1.00  0.00  0.00  0.00  0.17  0.00
  YS02001786YS02001788    1.00   0.00  0.00  0.00  0.79  0.21  0.00  0.00  0.00  0.00
  YS02001788YS02001790    1.00   0.00  0.00  0.00  0.21  0.79  0.00  0.00  0.80  0.00
  YS02001790YS02001791    1.00   0.00  0.00  0.00  0.01  0.99  0.00  0.00  0.16  0.00
  YS02001791YS02001793    1.00   0.00  0.00  0.00  0.00  1.00  0.00  0.00  0.01  0.00
  YS02001793JiankangQianchi    1.00   0.00  0.00  0.00  0.44  0.56  0.00  0.00  0.78  0.00
  YS02001882YS02001884    1.00   0.15  0.01  0.00  0.84  0.00  0.00  0.00  0.00  0.00
  YS02001884YS02001887    1.00   0.06  0.05  0.00  0.89  0.00  0.00  0.00  0.00  0.00
  YS02001887YS02001890    1.00   0.00  0.00  0.00  0.97  0.00  0.03  0.00  0.00  0.00
  YS02001890YS02001895    1.00   0.00  0.16  0.00  0.83  0.00  0.00  0.00  0.00  0.00
  YS02001895YS02001898    1.00   0.17  0.00  0.00  0.82  0.00  0.02  0.00  0.00  0.00
  YS02001898YS02001901    1.00   0.17  0.00  0.00  0.83  0.00  0.00  0.00  0.01  0.00
  YS02001901YS02001904    1.00   0.17  0.00  0.00  0.83  0.00  0.00  0.00  0.00  0.00
  YS02001904YS02001907    1.00   0.00  0.16  0.00  0.83  0.00  0.00  0.00  0.00  0.00
  YS02001907YS02006553    1.00   0.00  0.02  0.00  0.98  0.00  0.00  0.00  0.00  0.00
  YS02001910YS02001907    1.00   0.00  0.00  0.00  0.97  0.00  0.00  0.03  0.12  0.00
  YS02001915YS02001910    1.00   0.00  0.00  0.00  0.97  0.03  0.00  0.00  0.16  0.00
  YS02001918YS02001915    1.00   0.00  0.01  0.00  0.98  0.02  0.00  0.00  0.75  0.00
  YS02001920YS02001918    1.00   0.00  0.01  0.00  0.99  0.00  0.00  0.00  0.00  0.00
  YS02001923YS02001920    1.00   0.00  0.00  0.00  1.00  0.00  0.00  0.00  0.92  0.00
  YS02001926YS02001923    1.00   0.00  0.07  0.00  0.06  0.00  0.86  0.00  0.00  0.00
  YS02001929YS02001926    1.00   0.00  0.13  0.00  0.87  0.00  0.00  0.00  0.82  0.00
  YS02006553YS02006556    1.00   0.01  0.00  0.00  0.99  0.00  0.00  0.00  0.03  0.00
  YS02006556YS02006558    1.00   0.00  0.00  0.00  1.00  0.00  0.00  0.00  0.00  0.00
  YS02006558YS02006561    1.00   0.18  0.00  0.00  0.06  0.76  0.00  0.00  0.19  0.00
  YS02006561YS02001783    1.00   0.18  0.00  0.00  0.09  0.73  0.00  0.00  0.68  0.00
  YS02163301YS02001633    1.00   0.00  0.15  0.00  0.85  0.00  0.00  0.00  0.00  0.00
  YS02163601YS02164001    1.00   0.00  0.08  0.00  0.92  0.00  0.00  0.00  0.00  0.00
  YS02164001YS02001641    1.00   0.01  0.08  0.00  0.92  0.00  0.00  0.00  0.06  0.00
  
  
  *************************
  Conduit Surcharge Summary
  *************************
  
  ----------------------------------------------------------------------------
                                                           Hours        Hours 
                         --------- Hours Full --------   Above Full   Capacity
  Conduit                Both Ends  Upstream  Dnstream   Normal Flow   Limited
  ----------------------------------------------------------------------------
  WS02003072WS02003073        0.01      0.01      0.01      0.63         0.01
  WS02004404WS02004405        0.01      0.01      0.01      2.29         0.01
  WS02006109WS02006110        0.01      0.01      1.65      0.01         0.01
  WS02006110WS02006113        0.01      0.01      1.62      0.01         0.01
  WS02006111WS02006112        0.01      0.01      1.69      0.01         0.01
  WS02006112WS02006115        0.01      0.01      0.32      0.01         0.01
  WS02006228WS02006109        1.57      1.65      1.57      1.93         1.57
  WS02006229WS02006228        1.55      1.58      1.55      1.81         1.54
  WS02006230WS02006229        1.72      1.76      1.72      2.65         1.72
  WS02006231WS02006230        0.01      0.01      0.23      2.40         0.01
  WS02006232WS02006231        0.09      0.09      1.67      0.22         0.01
  WS02006234WS02006232        1.26      1.26      1.67      0.10         0.32
  WS02006235WS02006234        0.68      0.73      1.44      2.26         0.18
  WS02006238WS02006235        1.56      1.56      1.68      0.01         0.08
  WS02006239WS02006238        1.61      1.66      1.62      1.80         1.32
  WS02006240WS02006239        1.54      1.60      1.54      1.81         1.32
  WS02006242WS02006240        1.58      1.58      1.73      1.92         0.03
  WS02006243WS02006242        1.61      1.61      1.69      0.01         0.25
  WS02006245WS02006243        1.60      1.61      1.60      1.90         1.31
  WS02006247WS02006245        1.60      1.63      1.60      2.03         1.46
  WS02006248WS02006247        1.60      1.60      1.62      0.01         0.37
  WS02006249WS02006248        1.58      1.59      1.61      2.02         0.01
  WS02006251WS02006249        1.60      1.61      1.61      1.99         1.24
  WS02006252WS02006251        2.03      2.03      2.03      2.03         0.01
  WS02006256WS02006235        1.92      2.33      3.83      0.47         0.09
  YS02001580YS02001583        0.64      0.64      0.65      0.01         0.01
  YS02001583YS02001586        0.64      0.64      0.73      0.01         0.01
  YS02001586YS02001590        0.74      0.74      0.81      0.01         0.01
  YS02001590YS02001593        0.81      0.81      0.83      0.88         0.01
  YS02001593YS02001596        0.82      0.82      0.92      0.01         0.01
  YS02001596YS02001600        0.97      0.97      1.09      0.01         0.01
  YS02001600YS02001601        1.16      1.16      1.45      0.01         0.01
  YS02001601YS02001602        1.35      1.35      1.49      1.11         0.01
  YS02001602YS02001605        1.30      1.30      1.35      2.27         0.01
  YS02001605YS02001607        1.25      1.30      1.25      1.42         1.25
  YS02001607YS02001610        0.73      0.73      0.76      0.01         0.01
  YS02001610YS02001613        0.72      0.72      0.76      0.01         0.01
  YS02001613YS02001616        0.68      0.68      0.72      0.01         0.01
  YS02001616YS02001619        0.66      0.66      0.68      0.01         0.04
  YS02001619YS02001622        0.65      0.66      0.65      0.85         0.64
  YS02001622YS02001625        0.65      0.65      0.86      0.01         0.01
  YS02001625YS02001629        0.55      0.55      0.86      0.01         0.01
  YS02001629YS02163301        0.83      0.83      0.84      0.38         0.37
  YS02001633YS02163601        0.86      0.86      0.89      0.51         0.50
  YS02001641YS02001644        0.67      0.74      0.67      1.52         0.66
  YS02001644YS02001647        0.42      0.42      0.67      0.05         0.01
  YS02001647YS02001649        0.42      0.42      0.46      0.01         0.01
  YS02001649YS02001757        0.44      0.46      0.44      0.42         0.32
  YS02001652YS02001649        0.36      0.36      0.46      0.01         0.01
  YS02001655YS02001652        0.26      0.26      0.34      0.01         0.01
  YS02001658YS02001655        0.18      0.18      0.26      0.01         0.01
  YS02001661YS02001658        0.05      0.05      0.18      0.01         0.01
  YS02001664YS02001661        0.01      0.01      0.10      0.01         0.01
  YS02001745YS02001748        0.01      0.01      0.11      0.01         0.01
  YS02001748YS02001751        0.16      0.16      0.20      0.01         0.01
  YS02001751YS02001754        0.20      0.20      0.25      0.01         0.01
  YS02001754YS02001757        0.27      0.27      0.44      0.01         0.01
  YS02001757CaochengTiaoxuchi        0.01      0.44      0.35      0.54         0.01
  YS02001759YS02001757        0.39      0.39      0.44      0.05         0.07
  YS02001762YS02001759        0.38      0.38      0.39      0.01         0.04
  YS02001765YS02001762        0.35      0.35      0.38      0.01         0.01
  YS02001767YS02001765        0.34      0.34      0.35      0.02         0.05
  YS02001770YS02001767        0.34      0.35      0.34      0.61         0.33
  YS02001774YS02001770        0.33      0.33      0.38      0.01         0.01
  YS02001779YS02001774        0.28      0.28      0.38      0.01         0.01
  YS02001783YS02001784        0.53      0.56      0.53      0.70         0.53
  YS02001784YS02001785        0.43      0.53      0.43      0.94         0.43
  YS02001786YS02001788        0.01      0.43      0.01      0.80         0.01
  YS02001790YS02001791        0.01      0.01      0.01      0.52         0.01
  YS02001882YS02001884        0.50      0.50      0.51      0.01         0.01
  YS02001884YS02001887        0.53      0.53      0.55      0.01         0.01
  YS02001887YS02001890        0.56      0.56      0.57      0.14         0.01
  YS02001890YS02001895        0.49      0.49      0.59      0.01         0.01
  YS02001895YS02001898        0.48      0.48      0.49      0.01         0.01
  YS02001898YS02001901        0.49      0.49      0.53      0.01         0.01
  YS02001901YS02001904        0.52      0.52      0.53      0.01         0.01
  YS02001904YS02001907        0.52      0.52      0.78      0.01         0.01
  YS02001907YS02006553        0.95      0.95      1.02      0.01         0.01
  YS02001910YS02001907        0.59      0.59      0.77      0.01         0.01
  YS02001915YS02001910        0.50      0.50      0.59      0.01         0.01
  YS02001918YS02001915        0.42      0.42      0.50      0.01         0.01
  YS02001920YS02001918        0.42      0.42      0.43      0.01         0.01
  YS02001923YS02001920        0.38      0.38      0.43      0.01         0.01
  YS02001926YS02001923        0.14      0.14      0.16      0.01         0.01
  YS02001929YS02001926        0.01      0.01      0.16      0.01         0.01
  YS02006553YS02006556        0.68      0.68      0.79      0.01         0.01
  YS02006556YS02006558        0.73      0.73      0.80      0.01         0.01
  YS02006558YS02006561        0.45      0.66      0.45      0.89         0.45
  YS02006561YS02001783        0.38      0.38      0.56      0.01         0.01
  YS02163301YS02001633        0.84      0.84      0.89      0.01         0.02
  YS02163601YS02164001        0.76      0.76      0.89      0.31         0.01
  YS02164001YS02001641        0.74      0.76      0.74      0.76         0.56
  
  
  ***************
  Pumping Summary
  ***************
  
  ---------------------------------------------------------------------------------------------------------
                                                  Min       Avg       Max     Total     Power    % Time Off
                        Percent   Number of      Flow      Flow      Flow    Volume     Usage    Pump Curve
  Pump                 Utilized   Start-Ups       LPS       LPS       LPS  10^6 ltr     Kw-hr    Low   High
  ---------------------------------------------------------------------------------------------------------
  CC-R1                   25.71           4      0.00    683.00    683.00     5.004     83.39    0.0   82.9
  CC-R2                   25.71           4      0.00    683.00    683.00     5.004     83.39    0.0   82.9
  CC-S1                   25.71           4      0.00    200.00    200.00     1.465     10.84    0.0   24.4
  CC-S2                   25.71           4      0.00    200.00    200.00     1.465     10.84    0.0   24.4
  JK-R1                    6.73         275      0.00   1000.00   1000.00     1.918      5.16    0.0    0.0
  JK-R2                    6.73         275      0.00   1000.00   1000.00     1.918      5.16    0.0    0.0
  JK-S                     6.73         275      0.00    300.00    300.00     0.575     12.99    0.0    0.0
  

  Analysis begun on:  Tue Apr 22 10:15:51 2025
  Analysis ended on:  Tue Apr 22 10:15:53 2025
  Total elapsed time: 00:00:02