
  EPA STORM WATER MANAGEMENT MODEL - VERSION 5.2 (Build 5.2.4)
  PYSWMM TOOLKIT API - VERSION v1.0 (2023-11-27)
  ------------------------------------------------------------

  WARNING 04: minimum elevation drop used for Conduit WS02004404WS02004405
  WARNING 03: negative offset ignored for Link YS02001904YS02001907
  
  ****************
  Analysis Options
  ****************
  Flow Units ............... LPS
  Process Models:
    Rainfall/Runoff ........ YES
    RDII ................... NO
    Snowmelt ............... NO
    Groundwater ............ NO
    Flow Routing ........... YES
    Ponding Allowed ........ NO
    Water Quality .......... NO
  Infiltration Method ...... HORTON
  Flow Routing Method ...... DYNWAVE
  Surcharge Method ......... EXTRAN
  Starting Date ............ 08/28/2015 08:00:00
  Ending Date .............. 08/28/2015 16:00:00
  Antecedent Dry Days ...... 8.0
  Report Time Step ......... 00:01:00
  Wet Time Step ............ 00:01:00
  Dry Time Step ............ 00:01:00
  Routing Time Step ........ 30.00 sec
  Variable Time Step ....... YES
  Maximum Trials ........... 8
  Number of Threads ........ 4
  Head Tolerance ........... 0.001500 m
  
  
  **************************        Volume         Depth
  Runoff Quantity Continuity     hectare-m            mm
  **************************     ---------       -------
  Total Precipitation ......         1.966        59.279
  Evaporation Loss .........         0.000         0.000
  Infiltration Loss ........         0.101         3.059
  Surface Runoff ...........         1.832        55.234
  Final Storage ............         0.033         0.998
  Continuity Error (%) .....        -0.020
  
  
  **************************        Volume        Volume
  Flow Routing Continuity        hectare-m      10^6 ltr
  **************************     ---------     ---------
  Dry Weather Inflow .......         0.025         0.248
  Wet Weather Inflow .......         1.832        18.318
  Groundwater Inflow .......         0.000         0.000
  RDII Inflow ..............         0.000         0.000
  External Inflow ..........         0.083         0.825
  External Outflow .........         1.689        16.893
  Flooding Loss ............         0.427         4.271
  Evaporation Loss .........         0.000         0.000
  Exfiltration Loss ........         0.000         0.000
  Initial Stored Volume ....         0.243         2.431
  Final Stored Volume ......         0.084         0.837
  Continuity Error (%) .....        -0.814
  
  
  *************************
  Highest Continuity Errors
  *************************
  Node WS02006256 (-15.56%)
  Node YS02001884 (5.47%)
  Node YS02001583 (-5.03%)
  Node JK-storage (-1.77%)
  Node YS02001774 (1.03%)
  
  
  ***************************
  Time-Step Critical Elements
  ***************************
  Link WS02004404WS02004405 (23.54%)
  Link WS02006238WS02006235 (21.58%)
  Link YS02001793JiankangQianchi (20.42%)
  Link WS02003066WSF200 (11.94%)
  Link WS02006235WS02006234 (4.34%)
  
  
  ********************************
  Highest Flow Instability Indexes
  ********************************
  Link WS02006113WS02006111 (37)
  Link WS02006229WS02006228 (32)
  Link WS02006252WS02006251 (30)
  Link WS02006256WS02006235 (28)
  Link WS02006238WS02006235 (21)
  
  
  *********************************
  Most Frequent Nonconverging Nodes
  *********************************
  Node CC-1 (33.76%)
  Node CC-2 (33.76%)
  Node JK-1 (33.76%)
  Node JK-2 (33.76%)
  Node WSC (33.76%)
  
  
  *************************
  Routing Time Step Summary
  *************************
  Minimum Time Step           :     0.00 sec
  Average Time Step           :     3.15 sec
  Maximum Time Step           :     6.43 sec
  % of Time in Steady State   :     0.00
  Average Iterations per Step :     4.41
  % of Steps Not Converging   :    33.76
  Time Step Frequencies       :
     30.000 - 13.228 sec      :     0.00 %
     13.228 -  5.833 sec      :    21.10 %
      5.833 -  2.572 sec      :    28.00 %
      2.572 -  1.134 sec      :    37.61 %
      1.134 -  0.500 sec      :    13.29 %
  
  
  ***************************
  Subcatchment Runoff Summary
  ***************************
  
  ------------------------------------------------------------------------------------------------------------------------------
                            Total      Total      Total      Total     Imperv       Perv      Total       Total     Peak  Runoff
                           Precip      Runon       Evap      Infil     Runoff     Runoff     Runoff      Runoff   Runoff   Coeff
  Subcatchment                 mm         mm         mm         mm         mm         mm         mm    10^6 ltr      LPS
  ------------------------------------------------------------------------------------------------------------------------------
  sub60                     59.28       0.00       0.00       1.82      50.96       5.30      56.26        0.74   510.21   0.949
  sub61                     59.28       0.00       0.00       2.64      48.07       7.44      55.51        1.02   709.55   0.936
  sub62                     59.28       0.00       0.00       1.21      53.25       3.53      56.78        1.56   997.70   0.958
  sub63                     59.28       0.00       0.00       4.92      41.12      12.28      53.39        1.21   807.96   0.901
  sub64                     59.28       0.00       0.00       2.48      49.18       6.41      55.59        1.34   817.06   0.938
  sub65                     59.28       0.00       0.00       2.15      50.31       5.56      55.88        1.54   911.82   0.943
  sub66                     59.28       0.00       0.00       6.11      41.01      11.08      52.08        2.43  1224.31   0.879
  sub67                     59.28       0.00       0.00       1.16      53.29       3.58      56.87        1.06   761.37   0.959
  sub68                     59.28       0.00       0.00       2.19      49.79       6.11      55.90        1.54  1024.81   0.943
  sub69                     59.28       0.00       0.00       1.98      50.27       6.92      57.19        2.12  1210.70   0.965
  sub70                     59.28       0.00       0.00       6.60      38.95      13.55      52.51        1.52   687.14   0.886
  sub71                     59.28       0.00       0.00       1.25      53.20       3.50      56.70        1.48   880.61   0.957
  sub72                     59.28       0.00       0.00       1.11      53.72       3.04      56.76        0.78   430.02   0.957
  
  
  ******************
  Node Depth Summary
  ******************
  
  ---------------------------------------------------------------------------------
                                 Average  Maximum  Maximum  Time of Max    Reported
                                   Depth    Depth      HGL   Occurrence   Max Depth
  Node                 Type       Meters   Meters   Meters  days hr:min      Meters
  ---------------------------------------------------------------------------------
  WS02003060           JUNCTION     0.20     0.36     5.30     0  02:42        0.36
  WS02003066           JUNCTION     0.17     0.29     5.84     0  02:41        0.28
  WS02003067           JUNCTION     0.45     0.68     6.00     0  02:41        0.68
  WS02003069           JUNCTION     0.22     0.41     4.99     0  02:42        0.41
  WS02003072           JUNCTION     0.28     0.48     4.85     0  02:43        0.48
  WS02003073           JUNCTION     0.16     0.28     4.35     0  02:43        0.28
  WS02004401           JUNCTION     0.54     0.83     6.83     0  02:38        0.83
  WS02004402           JUNCTION     0.57     0.86     6.82     0  02:38        0.86
  WS02004403           JUNCTION     0.60     0.88     6.81     0  02:38        0.88
  WS02004404           JUNCTION     0.67     0.96     6.81     0  02:39        0.96
  WS02004405           JUNCTION     0.66     0.93     6.78     0  02:39        0.93
  WS02004406           JUNCTION     0.67     0.93     6.76     0  02:39        0.93
  WS02004407           JUNCTION     0.15     0.28     6.59     0  02:39        0.28
  WS02004409           JUNCTION     0.33     0.63     6.40     0  02:39        0.63
  WS02004410           JUNCTION     0.36     0.65     6.37     0  02:40        0.65
  WS02004411           JUNCTION     0.38     0.66     6.34     0  02:40        0.66
  WS02004412           JUNCTION     0.40     0.67     6.31     0  02:40        0.67
  WS02004413           JUNCTION     0.55     0.83     6.30     0  02:41        0.83
  WS02006109           JUNCTION     0.61     0.92     7.54     0  02:24        0.91
  WS02006110           JUNCTION     0.61     0.89     7.47     0  02:24        0.88
  WS02006111           JUNCTION     0.16     0.27     6.98     0  02:25        0.27
  WS02006112           JUNCTION     0.70     1.02     6.90     0  02:35        1.01
  WS02006113           JUNCTION     0.24     0.43     7.32     0  02:24        0.43
  WS02006115           JUNCTION     0.43     0.72     6.86     0  02:38        0.72
  WS02006116           JUNCTION     0.51     0.81     6.85     0  02:38        0.81
  WS02006228           JUNCTION     0.60     0.95     7.60     0  02:24        0.95
  WS02006229           JUNCTION     0.57     0.95     7.64     0  02:27        0.94
  WS02006230           JUNCTION     0.57     1.01     7.76     0  02:24        1.00
  WS02006231           JUNCTION     0.37     1.23     8.36     0  02:37        0.88
  WS02006232           JUNCTION     0.49     1.61     8.65     0  02:49        1.50
  WS02006234           JUNCTION     0.42     1.96     9.12     0  02:16        1.96
  WS02006235           JUNCTION     0.46     2.00     9.16     0  02:24        2.00
  WS02006238           JUNCTION     0.48     2.15     9.29     0  02:24        2.15
  WS02006239           JUNCTION     0.46     2.03     9.24     0  02:24        2.03
  WS02006240           JUNCTION     0.43     2.10     9.39     0  02:16        2.10
  WS02006242           JUNCTION     0.50     1.55     8.82     0  02:14        1.55
  WS02006243           JUNCTION     0.43     1.48     8.90     0  02:16        1.48
  WS02006245           JUNCTION     0.44     1.56     9.04     0  02:22        1.56
  WS02006247           JUNCTION     0.46     1.47     8.97     0  02:22        1.47
  WS02006248           JUNCTION     0.43     1.10     8.69     0  02:13        1.10
  WS02006249           JUNCTION     0.46     1.09     8.69     0  02:14        1.09
  WS02006251           JUNCTION     0.45     1.21     8.88     0  02:30        1.14
  WS02006252           JUNCTION     0.29     1.50     9.74     0  00:00        0.70
  WS02006256           JUNCTION     0.81     2.35     9.28     0  00:00        2.35
  WSF200               JUNCTION     0.14     0.28     5.51     0  02:41        0.28
  YS02001580           JUNCTION     0.15     1.05     9.59     0  02:13        0.77
  YS02001583           JUNCTION     0.17     1.11     9.61     0  02:13        0.82
  YS02001586           JUNCTION     0.28     1.13     9.30     0  02:13        1.13
  YS02001590           JUNCTION     0.40     1.40     9.26     0  02:13        1.40
  YS02001593           JUNCTION     0.33     1.39     9.25     0  02:24        1.37
  YS02001596           JUNCTION     0.45     1.74     9.16     0  02:24        1.72
  YS02001600           JUNCTION     0.55     1.87     9.00     0  02:13        1.87
  YS02001601           JUNCTION     0.73     2.06     8.90     0  02:12        2.06
  YS02001602           JUNCTION     0.63     1.87     8.77     0  02:12        1.87
  YS02001605           JUNCTION     0.58     1.78     8.68     0  02:22        1.78
  YS02001607           JUNCTION     0.54     1.68     8.53     0  02:24        1.68
  YS02001610           JUNCTION     0.58     1.68     8.48     0  02:18        1.68
  YS02001613           JUNCTION     0.54     1.70     8.54     0  02:24        1.70
  YS02001616           JUNCTION     0.47     1.61     8.52     0  02:21        1.61
  YS02001619           JUNCTION     0.45     1.61     8.54     0  02:21        1.61
  YS02001622           JUNCTION     0.44     1.59     8.49     0  02:22        1.59
  YS02001625           JUNCTION     0.67     1.78     8.38     0  02:18        1.78
  YS02001629           JUNCTION     0.57     1.85     8.40     0  02:19        1.85
  YS02001633           JUNCTION     0.64     2.08     8.53     0  02:24        2.08
  YS02001641           JUNCTION     0.59     2.10     8.54     0  02:24        2.10
  YS02001644           JUNCTION     0.58     1.92     8.35     0  02:21        1.92
  YS02001647           JUNCTION     0.36     1.79     8.40     0  02:21        1.78
  YS02001649           JUNCTION     0.39     1.98     8.37     0  02:22        1.98
  YS02001652           JUNCTION     0.27     1.91     8.51     0  02:21        1.83
  YS02001655           JUNCTION     0.19     2.20     9.05     0  02:20        1.55
  YS02001658           JUNCTION     0.14     2.12     9.26     0  02:21        1.29
  YS02001661           JUNCTION     0.17     1.07     8.47     0  02:22        1.06
  YS02001664           JUNCTION     0.08     0.48     8.41     0  02:23        0.46
  YS02001745           JUNCTION     0.08     0.72     8.24     0  02:23        0.72
  YS02001748           JUNCTION     0.12     1.53     8.60     0  02:22        1.16
  YS02001751           JUNCTION     0.15     1.83     8.71     0  02:24        1.83
  YS02001754           JUNCTION     0.21     1.71     8.32     0  02:22        1.60
  YS02001757           JUNCTION     0.39     1.97     8.23     0  02:22        1.95
  YS02001759           JUNCTION     0.33     2.21     8.57     0  02:24        2.21
  YS02001762           JUNCTION     0.32     1.96     8.36     0  02:22        1.96
  YS02001765           JUNCTION     0.30     2.10     8.55     0  02:24        2.10
  YS02001767           JUNCTION     0.30     1.90     8.39     0  02:24        1.89
  YS02001770           JUNCTION     0.31     1.95     8.44     0  02:22        1.95
  YS02001774           JUNCTION     0.37     1.99     8.41     0  02:22        1.99
  YS02001779           JUNCTION     0.20     1.68     8.37     0  02:19        1.68
  YS02001783           JUNCTION     0.33     1.75     7.89     0  02:24        1.75
  YS02001784           JUNCTION     0.34     1.66     7.73     0  02:24        1.14
  YS02001786           JUNCTION     0.28     0.90     6.93     0  02:18        0.87
  YS02001788           JUNCTION     0.21     0.62     6.60     0  02:24        0.62
  YS02001790           JUNCTION     0.24     0.73     6.37     0  02:25        0.71
  YS02001791           JUNCTION     0.15     0.44     5.91     0  02:25        0.44
  YS02001793           JUNCTION     0.08     0.25     5.08     0  02:24        0.24
  YS02001882           JUNCTION     0.41     1.77     8.49     0  02:24        1.66
  YS02001884           JUNCTION     0.49     1.84     8.46     0  02:24        1.76
  YS02001887           JUNCTION     0.56     2.00     8.54     0  02:24        2.00
  YS02001890           JUNCTION     0.59     1.81     8.32     0  02:18        1.81
  YS02001895           JUNCTION     0.38     1.75     8.50     0  02:24        1.75
  YS02001898           JUNCTION     0.38     1.73     8.47     0  02:24        1.56
  YS02001901           JUNCTION     0.49     1.78     8.39     0  02:24        1.67
  YS02001904           JUNCTION     0.47     1.71     8.34     0  02:24        1.65
  YS02001907           JUNCTION     0.77     1.96     8.25     0  02:18        1.96
  YS02001910           JUNCTION     0.58     2.04     8.55     0  02:24        1.86
  YS02001915           JUNCTION     0.41     2.00     8.72     0  02:24        2.00
  YS02001918           JUNCTION     0.24     1.81     8.88     0  02:19        1.42
  YS02001920           JUNCTION     0.32     2.14     9.15     0  02:19        1.75
  YS02001923           JUNCTION     0.19     2.03     9.29     0  02:19        1.26
  YS02001926           JUNCTION     0.21     1.90     9.35     0  02:19        1.08
  YS02001929           JUNCTION     0.13     1.78     9.47     0  02:19        0.85
  YS02006553           JUNCTION     0.77     2.02     8.30     0  02:24        2.01
  YS02006556           JUNCTION     0.74     2.06     8.37     0  02:24        1.98
  YS02006558           JUNCTION     0.78     2.50     8.77     0  02:24        2.50
  YS02006561           JUNCTION     0.21     1.15     7.81     0  02:24        0.90
  YS02163301           JUNCTION     0.59     1.99     8.51     0  02:24        1.92
  YS02163601           JUNCTION     0.66     2.08     8.48     0  02:24        2.03
  YS02164001           JUNCTION     0.59     2.05     8.51     0  02:24        1.93
  CC-1                 OUTFALL      0.00     0.00     0.00     0  00:00        0.00
  CC-2                 OUTFALL      0.00     0.00     0.00     0  00:00        0.00
  JK-1                 OUTFALL      0.00     0.00     0.00     0  00:00        0.00
  JK-2                 OUTFALL      0.00     0.00     0.00     0  00:00        0.00
  WSC                  OUTFALL      0.16     0.28     0.95     0  02:44        0.28
  CC-storage           STORAGE      0.32     0.92     6.42     0  02:48        0.92
  JK-storage           STORAGE      0.11     2.99     3.79     0  00:00        0.68
  
  
  *******************
  Node Inflow Summary
  *******************
  
  -------------------------------------------------------------------------------------------------
                                  Maximum  Maximum                  Lateral       Total        Flow
                                  Lateral    Total  Time of Max      Inflow      Inflow     Balance
                                   Inflow   Inflow   Occurrence      Volume      Volume       Error
  Node                 Type           LPS      LPS  days hr:min    10^6 ltr    10^6 ltr     Percent
  -------------------------------------------------------------------------------------------------
  WS02003060           JUNCTION     16.53   501.55     0  02:41       0.471        3.74       0.050
  WS02003066           JUNCTION      0.00   484.90     0  02:41           0        3.27       0.040
  WS02003067           JUNCTION      0.00   484.84     0  02:41           0        3.27       0.121
  WS02003069           JUNCTION      0.32   501.67     0  02:42     0.00912        3.74       0.094
  WS02003072           JUNCTION      0.00   501.37     0  02:43           0        3.74       0.174
  WS02003073           JUNCTION      1.82   503.08     0  02:43      0.0519        3.79       0.132
  WS02004401           JUNCTION      0.00   486.35     0  02:37           0        3.37       0.297
  WS02004402           JUNCTION      0.00   486.58     0  02:38           0        3.36       0.302
  WS02004403           JUNCTION      0.00   486.91     0  02:38           0        3.35       0.298
  WS02004404           JUNCTION      0.16   497.49     0  02:42     0.00462        3.34       0.212
  WS02004405           JUNCTION      0.04   541.19     0  02:37     0.00109        3.34       0.332
  WS02004406           JUNCTION      0.00   489.37     0  02:29           0        3.32       0.621
  WS02004407           JUNCTION      0.00   486.28     0  02:39           0         3.3       0.025
  WS02004409           JUNCTION      0.00   485.84     0  02:39           0         3.3       0.066
  WS02004410           JUNCTION      0.00   485.60     0  02:40           0         3.3       0.122
  WS02004411           JUNCTION      0.00   485.32     0  02:40           0         3.3       0.157
  WS02004412           JUNCTION      0.00   485.17     0  02:40           0        3.29       0.212
  WS02004413           JUNCTION      0.00   485.25     0  02:41           0        3.29       0.400
  WS02006109           JUNCTION      1.23   492.55     0  02:24      0.0351        3.41       0.197
  WS02006110           JUNCTION      0.00   492.40     0  02:24           0        3.41       0.185
  WS02006111           JUNCTION      0.00   504.88     0  02:25           0         3.4       0.031
  WS02006112           JUNCTION      0.00   489.86     0  02:25           0         3.4       0.593
  WS02006113           JUNCTION      0.00   490.68     0  02:24           0         3.4       0.039
  WS02006115           JUNCTION      0.00   490.22     0  02:25           0        3.38       0.201
  WS02006116           JUNCTION      0.00   486.96     0  02:35           0        3.37       0.078
  WS02006228           JUNCTION      0.00   491.29     0  02:24           0        3.38       0.063
  WS02006229           JUNCTION      0.00   490.75     0  02:24           0        3.38       0.149
  WS02006230           JUNCTION     10.28   536.99     0  02:30       0.293        3.39       0.156
  WS02006231           JUNCTION      0.00   542.88     0  02:49           0        3.09      -0.066
  WS02006232           JUNCTION      0.00   536.24     0  02:24           0         3.1       0.276
  WS02006234           JUNCTION      0.00   531.16     0  02:30           0        3.09      -0.475
  WS02006235           JUNCTION      0.00   570.01     0  02:08           0        3.15       0.017
  WS02006238           JUNCTION      0.00   432.45     0  02:53           0        2.83      -0.274
  WS02006239           JUNCTION      0.00   426.96     0  02:53           0        2.77      -0.393
  WS02006240           JUNCTION      0.00   418.26     0  02:53           0        2.75      -0.148
  WS02006242           JUNCTION      0.00   421.02     0  02:49           0        2.75      -0.029
  WS02006243           JUNCTION      0.00   423.68     0  02:24           0        2.75      -0.035
  WS02006245           JUNCTION      0.00   422.00     0  02:49           0        2.77       0.617
  WS02006247           JUNCTION      0.00   422.30     0  02:53           0        2.77      -0.022
  WS02006248           JUNCTION      0.00   423.66     0  02:15           0        2.77       0.089
  WS02006249           JUNCTION      0.00   476.21     0  01:55           0        2.79       0.544
  WS02006251           JUNCTION      0.08   403.05     0  01:43     0.00219        2.79      -0.042
  WS02006252           JUNCTION      0.00   400.00     0  00:00           0        2.79      -0.091
  WS02006256           JUNCTION      0.00   336.70     0  02:07           0       0.552     -13.468
  WSF200               JUNCTION      0.00   484.87     0  02:41           0        3.27       0.011
  YS02001580           JUNCTION      0.00    74.54     0  02:13           0     0.00413       3.386
  YS02001583           JUNCTION      0.00   126.17     0  02:13           0      0.0153      -4.790
  YS02001586           JUNCTION    687.14   687.17     0  02:26        1.52        1.53       0.066
  YS02001590           JUNCTION      0.00   329.53     0  02:24           0        1.26      -0.032
  YS02001593           JUNCTION      0.00   328.26     0  02:24           0        1.26       0.015
  YS02001596           JUNCTION      0.00   318.29     0  02:24           0        1.26       0.002
  YS02001600           JUNCTION      0.00   318.61     0  02:34           0        1.26       0.028
  YS02001601           JUNCTION   1210.70  1528.32     0  02:25        2.12        3.37       0.032
  YS02001602           JUNCTION      0.00   509.76     0  02:46           0        2.25       0.025
  YS02001605           JUNCTION      0.00   509.83     0  02:46           0        2.17       0.031
  YS02001607           JUNCTION      0.00   510.03     0  02:47           0        2.17       0.093
  YS02001610           JUNCTION      0.00   650.27     0  02:26           0        2.31       0.105
  YS02001613           JUNCTION      0.00   510.79     0  02:47           0        1.97       0.083
  YS02001616           JUNCTION      0.00   510.91     0  02:47           0        1.97       0.029
  YS02001619           JUNCTION   1224.31  1224.31     0  02:26        2.43        4.26       0.003
  YS02001622           JUNCTION      0.00   963.31     0  02:39           0        4.12       0.004
  YS02001625           JUNCTION      0.00  1267.35     0  02:26           0        4.23       0.214
  YS02001629           JUNCTION      0.00   963.13     0  02:39           0        3.62       0.028
  YS02001633           JUNCTION    912.02  1376.94     0  02:18        1.54        5.03       0.073
  YS02001641           JUNCTION      0.00  1376.14     0  02:18           0         4.9       0.061
  YS02001644           JUNCTION    817.10  1775.39     0  02:18        1.34        6.23       0.054
  YS02001647           JUNCTION      0.00  1776.74     0  02:18           0        6.06       0.008
  YS02001649           JUNCTION      0.00  2038.19     0  02:19           0        7.27       0.006
  YS02001652           JUNCTION      0.00   831.20     0  02:25           0        1.22      -0.069
  YS02001655           JUNCTION      0.15   831.53     0  02:25     0.00439        1.22       0.019
  YS02001658           JUNCTION      0.00   830.80     0  02:25           0        1.21       0.002
  YS02001661           JUNCTION      0.00   902.44     0  02:24           0        1.21       0.007
  YS02001664           JUNCTION    807.96   807.96     0  02:25        1.21        1.21      -0.006
  YS02001745           JUNCTION    510.21   510.21     0  02:25       0.739       0.739       0.110
  YS02001748           JUNCTION      0.04   541.98     0  02:22     0.00128        0.74      -0.151
  YS02001751           JUNCTION      0.01   545.40     0  02:24    0.000313       0.744       0.046
  YS02001754           JUNCTION      0.26   526.86     0  02:25     0.00741       0.753      -0.085
  YS02001757           JUNCTION      0.00  3470.13     0  02:25           0        10.6       0.043
  YS02001759           JUNCTION    709.59  1402.22     0  02:24        1.02        2.53      -0.001
  YS02001762           JUNCTION      0.00   814.75     0  02:28           0        1.51       0.006
  YS02001765           JUNCTION      0.00   814.07     0  02:28           0        1.51       0.018
  YS02001767           JUNCTION      0.54   813.76     0  02:28      0.0152        1.51       0.015
  YS02001770           JUNCTION    997.86   997.86     0  02:25        1.56         1.6      -0.006
  YS02001774           JUNCTION      0.00   310.28     0  02:25           0       0.122       1.044
  YS02001779           JUNCTION      0.01   310.61     0  02:25    0.000142      0.0807      -0.376
  YS02001783           JUNCTION      0.00  1164.11     0  02:23           0        3.87       0.007
  YS02001784           JUNCTION      1.06  1164.95     0  02:23      0.0302         3.9       0.018
  YS02001786           JUNCTION      0.06  1165.55     0  02:23      0.0016         3.9       0.013
  YS02001788           JUNCTION      0.07  1165.38     0  02:23     0.00202        3.91       0.007
  YS02001790           JUNCTION      0.15  1174.13     0  02:22     0.00442        3.91       0.003
  YS02001791           JUNCTION      0.00  1292.65     0  02:25           0        3.91       0.001
  YS02001793           JUNCTION      0.00  1261.96     0  02:25           0        3.91      -0.035
  YS02001882           JUNCTION      0.00    33.17     0  02:16           0      0.0125       5.918
  YS02001884           JUNCTION      0.00    46.91     0  02:15           0      0.0481       5.789
  YS02001887           JUNCTION    761.82   761.82     0  02:25        1.07         1.1       0.411
  YS02001890           JUNCTION      0.00   761.54     0  02:25           0        1.06       0.491
  YS02001895           JUNCTION      0.00   552.87     0  02:24           0       0.999       0.150
  YS02001898           JUNCTION      0.00   563.85     0  02:24           0       0.997       0.049
  YS02001901           JUNCTION      0.00   517.79     0  02:27           0       0.999       0.333
  YS02001904           JUNCTION      0.00   520.33     0  02:24           0           1       0.297
  YS02001907           JUNCTION      0.00  1847.89     0  02:25           0        3.34       0.547
  YS02001910           JUNCTION      0.00  1331.66     0  02:25           0        2.34       0.309
  YS02001915           JUNCTION    880.63  1331.35     0  02:25        1.48        2.37       0.073
  YS02001918           JUNCTION      0.00   473.34     0  02:24           0        0.91       0.038
  YS02001920           JUNCTION      2.87   487.16     0  02:24      0.0818       0.898       0.112
  YS02001923           JUNCTION      0.04   449.67     0  02:25     0.00107       0.803      -0.010
  YS02001926           JUNCTION      0.05   448.83     0  02:25     0.00149       0.788       0.022
  YS02001929           JUNCTION    430.02   430.02     0  02:26        0.78       0.781      -0.092
  YS02006553           JUNCTION      0.00   802.12     0  02:37           0        2.36       0.510
  YS02006556           JUNCTION      0.00   801.92     0  02:37           0        2.36       0.353
  YS02006558           JUNCTION   1025.69  1165.22     0  02:24        1.56         3.9       0.087
  YS02006561           JUNCTION      0.00  1163.86     0  02:23           0        3.87       0.005
  YS02163301           JUNCTION      0.00   965.16     0  02:39           0        3.61       0.049
  YS02163601           JUNCTION      0.11  1376.98     0  02:18     0.00313         4.9       0.105
  YS02164001           JUNCTION      0.00  1376.73     0  02:18           0         4.9       0.054
  CC-1                 OUTFALL       0.00   683.00     0  00:00           0        4.76       0.000
  CC-2                 OUTFALL       0.00   683.00     0  00:00           0        4.76       0.000
  JK-1                 OUTFALL       0.00  1000.00     0  00:00           0         1.8       0.000
  JK-2                 OUTFALL       0.00  1000.00     0  00:00           0         1.8       0.000
  WSC                  OUTFALL       0.00   503.02     0  02:44           0        3.78       0.000
  CC-storage           STORAGE       0.00  3469.53     0  02:25           0        12.8      -0.320
  JK-storage           STORAGE       0.00  1385.69     0  02:24           0        4.06      -1.740
  
  
  **********************
  Node Surcharge Summary
  **********************
  
  Surcharging occurs when water rises above the top of the highest conduit.
  ---------------------------------------------------------------------
                                               Max. Height   Min. Depth
                                   Hours       Above Crown    Below Rim
  Node                 Type      Surcharged         Meters       Meters
  ---------------------------------------------------------------------
  WS02006109           JUNCTION        1.39          0.099        1.721
  WS02006112           JUNCTION        0.37          0.020        1.660
  WS02006228           JUNCTION        1.37          0.123        2.077
  WS02006229           JUNCTION        1.40          0.146        2.304
  WS02006231           JUNCTION        0.09          0.525        1.005
  WS02006232           JUNCTION        1.48          0.912        0.568
  WS02006234           JUNCTION        0.69          1.240        0.000
  WS02006235           JUNCTION        1.26          1.290        0.000
  WS02006238           JUNCTION        1.44          1.430        0.000
  WS02006239           JUNCTION        1.37          1.290        0.000
  WS02006240           JUNCTION        1.40          1.390        0.000
  WS02006242           JUNCTION        1.52          0.820        0.000
  WS02006243           JUNCTION        1.42          0.770        0.000
  WS02006245           JUNCTION        1.42          0.850        0.000
  WS02006247           JUNCTION        1.44          0.760        0.000
  WS02006248           JUNCTION        1.41          0.380        0.000
  WS02006249           JUNCTION        1.43          0.390        0.000
  WS02006251           JUNCTION        0.47          0.178        1.002
  WS02006252           JUNCTION        1.93          1.100        0.000
  WS02006256           JUNCTION        4.30          2.050        0.000
  YS02001580           JUNCTION        0.55          0.450        0.000
  YS02001583           JUNCTION        0.55          0.473        0.027
  YS02001586           JUNCTION        0.64          0.510        0.000
  YS02001590           JUNCTION        0.72          0.750        0.000
  YS02001593           JUNCTION        0.72          0.773        0.067
  YS02001596           JUNCTION        0.84          1.011        0.059
  YS02001600           JUNCTION        1.01          1.190        0.000
  YS02001601           JUNCTION        1.37          1.440        0.000
  YS02001602           JUNCTION        1.25          1.270        0.000
  YS02001605           JUNCTION        1.19          1.180        0.000
  YS02001607           JUNCTION        0.66          0.680        0.000
  YS02001610           JUNCTION        0.68          0.680        0.000
  YS02001613           JUNCTION        0.65          0.700        0.000
  YS02001616           JUNCTION        0.60          0.610        0.000
  YS02001619           JUNCTION        0.59          0.610        0.000
  YS02001622           JUNCTION        0.58          0.590        0.030
  YS02001625           JUNCTION        0.78          0.780        0.000
  YS02001629           JUNCTION        0.49          0.470        0.000
  YS02001633           JUNCTION        0.79          1.060        0.000
  YS02001641           JUNCTION        0.66          1.100        0.000
  YS02001644           JUNCTION        0.59          0.920        0.000
  YS02001647           JUNCTION        0.35          0.790        0.110
  YS02001649           JUNCTION        0.38          0.984        0.066
  YS02001652           JUNCTION        0.27          0.883        0.247
  YS02001655           JUNCTION        0.21          1.200        0.000
  YS02001658           JUNCTION        0.13          1.119        0.181
  YS02001748           JUNCTION        0.06          0.447        0.743
  YS02001751           JUNCTION        0.15          0.829        0.371
  YS02001754           JUNCTION        0.20          0.664        0.486
  YS02001757           JUNCTION        0.37          0.969        0.241
  YS02001759           JUNCTION        0.32          1.210        0.000
  YS02001762           JUNCTION        0.30          0.956        0.194
  YS02001765           JUNCTION        0.28          1.100        0.000
  YS02001767           JUNCTION        0.27          0.903        0.127
  YS02001770           JUNCTION        0.26          0.920        0.000
  YS02001774           JUNCTION        0.30          0.989        0.061
  YS02001779           JUNCTION        0.22          0.680        0.000
  YS02001783           JUNCTION        0.49          0.953        0.647
  YS02001784           JUNCTION        0.46          0.864        0.626
  YS02001786           JUNCTION        0.35          0.098        1.332
  YS02001882           JUNCTION        0.43          0.772        0.058
  YS02001884           JUNCTION        0.44          0.784        0.086
  YS02001887           JUNCTION        0.48          0.950        0.000
  YS02001890           JUNCTION        0.49          0.760        0.000
  YS02001895           JUNCTION        0.42          0.750        0.000
  YS02001898           JUNCTION        0.42          0.703        0.037
  YS02001901           JUNCTION        0.46          0.783        0.087
  YS02001904           JUNCTION        0.46          0.706        0.144
  YS02001907           JUNCTION        0.74          0.950        0.000
  YS02001910           JUNCTION        0.52          1.042        0.058
  YS02001915           JUNCTION        0.43          1.000        0.000
  YS02001918           JUNCTION        0.35          0.810        0.000
  YS02001920           JUNCTION        0.36          1.140        0.000
  YS02001923           JUNCTION        0.05          0.820        0.000
  YS02001926           JUNCTION        0.11          0.900        0.000
  YS02001929           JUNCTION        0.01          0.780        0.000
  YS02006553           JUNCTION        0.75          1.019        0.171
  YS02006556           JUNCTION        0.62          1.023        0.327
  YS02006558           JUNCTION        0.60          1.400        0.000
  YS02006561           JUNCTION        0.31          0.353        0.797
  YS02163301           JUNCTION        0.77          0.992        0.038
  YS02163601           JUNCTION        0.82          1.080        0.000
  YS02164001           JUNCTION        0.68          1.049        0.051
  
  
  *********************
  Node Flooding Summary
  *********************
  
  Flooding refers to all water that overflows a node, whether it ponds or not.
  --------------------------------------------------------------------------
                                                             Total   Maximum
                                 Maximum   Time of Max       Flood    Ponded
                        Hours       Rate    Occurrence      Volume     Depth
  Node                 Flooded       LPS   days hr:min    10^6 ltr    Meters
  --------------------------------------------------------------------------
  WS02006234              0.01     68.27      0  02:18       0.000     0.000
  WS02006235              0.01      5.82      0  02:24       0.000     0.000
  WS02006238              0.01      3.81      0  02:24       0.000     0.000
  WS02006239              0.01      2.84      0  02:24       0.000     0.000
  WS02006240              0.01     17.90      0  02:16       0.000     0.000
  WS02006242              0.02     32.21      0  02:24       0.001     0.000
  WS02006243              0.01     18.83      0  02:24       0.000     0.000
  WS02006245              0.01      3.38      0  02:34       0.000     0.000
  WS02006247              0.01      2.18      0  02:34       0.000     0.000
  WS02006248              0.15     25.24      0  02:35       0.007     0.000
  WS02006249              0.19     15.65      0  02:23       0.003     0.000
  WS02006252              0.01    245.63      0  00:00       0.000     0.000
  WS02006256              0.51    296.25      0  02:32       0.311     0.000
  YS02001580              0.01     46.74      0  02:13       0.000     0.000
  YS02001586              0.42    369.66      0  02:26       0.261     0.000
  YS02001590              0.01      8.36      0  02:13       0.000     0.000
  YS02001600              0.01      3.41      0  02:24       0.000     0.000
  YS02001601              0.57   1130.43      0  02:25       1.119     0.000
  YS02001602              0.39     69.41      0  02:24       0.079     0.000
  YS02001605              0.01      7.31      0  02:24       0.000     0.000
  YS02001607              0.01      0.33      0  02:24       0.000     0.000
  YS02001610              0.34    650.23      0  02:26       0.476     0.000
  YS02001613              0.01      0.65      0  02:24       0.000     0.000
  YS02001616              0.01     49.42      0  02:24       0.000     0.000
  YS02001619              0.01     77.23      0  02:24       0.000     0.000
  YS02001625              0.29   1267.17      0  02:26       0.726     0.000
  YS02001629              0.09    121.51      0  02:24       0.023     0.000
  YS02001633              0.01      1.50      0  02:24       0.000     0.000
  YS02001641              0.01      0.39      0  02:24       0.000     0.000
  YS02001644              0.12    637.05      0  02:25       0.165     0.000
  YS02001655              0.01    202.42      0  02:20       0.000     0.000
  YS02001759              0.01      1.86      0  02:24       0.000     0.000
  YS02001765              0.01      0.36      0  02:24       0.000     0.000
  YS02001770              0.01      1.51      0  02:24       0.000     0.000
  YS02001779              0.10    310.38      0  02:25       0.065     0.000
  YS02001887              0.01      2.00      0  02:24       0.000     0.000
  YS02001890              0.15    245.38      0  02:25       0.059     0.000
  YS02001895              0.01      0.42      0  02:24       0.000     0.000
  YS02001907              0.30   1698.95      0  02:25       0.975     0.000
  YS02001915              0.01     79.01      0  02:24       0.000     0.000
  YS02001918              0.01     90.77      0  02:19       0.001     0.000
  YS02001920              0.01     24.35      0  02:19       0.000     0.000
  YS02001923              0.01     46.47      0  02:19       0.000     0.000
  YS02001926              0.01     61.55      0  02:19       0.000     0.000
  YS02001929              0.01    239.70      0  02:19       0.001     0.000
  YS02006558              0.01      0.77      0  02:24       0.000     0.000
  YS02163601              0.01     20.00      0  02:24       0.000     0.000
  
  
  **********************
  Storage Volume Summary
  **********************
  
  ------------------------------------------------------------------------------------------------
                         Average    Avg   Evap  Exfil     Maximum    Max    Time of Max    Maximum
                          Volume   Pcnt   Pcnt   Pcnt      Volume   Pcnt     Occurrence    Outflow
  Storage Unit           1000 m³   Full   Loss   Loss     1000 m³   Full    days hr:min        LPS
  ------------------------------------------------------------------------------------------------
  CC-storage               0.895   14.0    0.0    0.0       2.562   40.0       0  02:48    1783.53
  JK-storage               0.005    1.9    0.0    0.0       0.150   51.6       0  00:00    2300.00
  
  
  ***********************
  Outfall Loading Summary
  ***********************
  
  -----------------------------------------------------------
                         Flow       Avg       Max       Total
                         Freq      Flow      Flow      Volume
  Outfall Node           Pcnt       LPS       LPS    10^6 ltr
  -----------------------------------------------------------
  CC-1                  47.45    683.00    683.00       4.760
  CC-2                  47.45    683.00    683.00       4.760
  JK-1                  13.70   1000.00   1000.00       1.796
  JK-2                  13.70   1000.00   1000.00       1.796
  WSC                   99.93    202.97    503.02       3.781
  -----------------------------------------------------------
  System                44.45   3568.97   3869.01      16.893
  
  
  ********************
  Link Flow Summary
  ********************
  
  -----------------------------------------------------------------------------
                                 Maximum  Time of Max   Maximum    Max/    Max/
                                  |Flow|   Occurrence   |Veloc|    Full    Full
  Link                 Type          LPS  days hr:min     m/sec    Flow   Depth
  -----------------------------------------------------------------------------
  1                    CONDUIT    503.02     0  02:44      2.75    0.18    0.28
  WS02003060WS02003069 CONDUIT    501.35     0  02:42      1.60    0.20    0.32
  WS02003066WSF200     CONDUIT    484.87     0  02:41      2.78    0.08    0.21
  WS02003067WS02003066 CONDUIT    484.90     0  02:41      1.14    0.16    0.40
  WS02003069WS02003072 CONDUIT    501.37     0  02:43      1.33    0.24    0.37
  WS02003072WS02003073 CONDUIT    501.26     0  02:43      1.39    1.08    0.36
  WS02004401WS02004402 CONDUIT    486.58     0  02:38      1.22    0.58    0.84
  WS02004402WS02004403 CONDUIT    486.91     0  02:38      1.24    0.70    0.87
  WS02004403WS02004404 CONDUIT    497.33     0  02:42      1.24    0.36    0.92
  WS02004404WS02004405 CONDUIT    541.15     0  02:37      1.45    5.30    0.94
  WS02004405WS02004406 CONDUIT    489.37     0  02:29      1.46    0.97    0.93
  WS02004406WS02004407 CONDUIT    486.28     0  02:39      0.98    0.22    0.60
  WS02004407WS02004409 CONDUIT    485.84     0  02:39      1.59    0.17    0.46
  WS02004409WS02004410 CONDUIT    485.60     0  02:40      1.06    0.63    0.64
  WS02004410WS02004411 CONDUIT    485.32     0  02:40      1.13    0.66    0.65
  WS02004411WS02004412 CONDUIT    485.17     0  02:40      1.20    0.69    0.66
  WS02004412WS02004413 CONDUIT    485.25     0  02:41      1.22    0.32    0.75
  WS02004413WS02003067 CONDUIT    484.84     0  02:41      1.05    0.21    0.57
  WS02006109WS02006110 CONDUIT    492.40     0  02:24      0.98    0.95    0.99
  WS02006110WS02006113 CONDUIT    490.68     0  02:24      1.18    0.45    0.77
  WS02006111WS02006112 CONDUIT    489.86     0  02:25      1.95    0.23    0.66
  WS02006112WS02006115 CONDUIT    490.22     0  02:25      0.82    0.29    0.86
  WS02006113WS02006111 CONDUIT    504.88     0  02:25      2.38    0.61    0.44
  WS02006115WS02006116 CONDUIT    486.96     0  02:35      1.29    0.62    0.73
  WS02006116WS02004401 CONDUIT    486.35     0  02:37      1.21    0.67    0.82
  WS02006228WS02006109 CONDUIT    491.32     0  02:24      1.06    2.15    1.00
  WS02006229WS02006228 CONDUIT    491.29     0  02:24      1.12    1.63    1.00
  WS02006230WS02006229 CONDUIT    490.75     0  02:24      1.28   10.92    1.00
  WS02006231WS02006230 CONDUIT    526.72     0  02:30      1.42    7.99    0.95
  WS02006232WS02006231 CONDUIT    542.88     0  02:49      1.42    1.14    1.00
  WS02006234WS02006232 CONDUIT    536.24     0  02:24      1.39    1.08    1.00
  WS02006235WS02006234 CONDUIT    531.16     0  02:30      1.38    5.60    1.00
  WS02006238WS02006235 CONDUIT    448.77     0  02:49      1.45    1.00    1.00
  WS02006239WS02006238 CONDUIT    432.45     0  02:53      1.13    1.38    1.00
  WS02006240WS02006239 CONDUIT    426.96     0  02:53      1.26    1.34    1.00
  WS02006242WS02006240 CONDUIT    418.26     0  02:53      1.16    1.66    1.00
  WS02006243WS02006242 CONDUIT    421.02     0  02:49      1.44    0.90    1.00
  WS02006245WS02006243 CONDUIT    423.68     0  02:24      1.44    1.25    1.00
  WS02006247WS02006245 CONDUIT    422.00     0  02:49      1.43    3.35    1.00
  WS02006248WS02006247 CONDUIT    422.30     0  02:53      1.44    0.92    1.00
  WS02006249WS02006248 CONDUIT    423.66     0  02:15      1.39    2.32    1.00
  WS02006251WS02006249 CONDUIT    476.21     0  01:55      1.99    1.37    1.00
  WS02006252WS02006251 CONDUIT    402.97     0  01:43     18.84    1.48    1.00
  WS02006256WS02006235 CONDUIT    288.91     0  00:00      4.23    3.06    1.00
  WSF200WS02003060     CONDUIT    485.03     0  02:41      2.01    0.11    0.27
  YS02001580YS02001583 CONDUIT     74.54     0  02:13      0.53    0.29    1.00
  YS02001583YS02001586 CONDUIT    126.17     0  02:13      0.52    0.19    1.00
  YS02001586YS02001590 CONDUIT    329.53     0  02:24      1.26    0.58    1.00
  YS02001590YS02001593 CONDUIT    328.26     0  02:24      1.16    2.06    1.00
  YS02001593YS02001596 CONDUIT    318.29     0  02:24      1.77    0.50    1.00
  YS02001596YS02001600 CONDUIT    318.61     0  02:34      1.26    0.62    1.00
  YS02001600YS02001601 CONDUIT    318.52     0  02:24      1.13    0.55    1.00
  YS02001601YS02001602 CONDUIT    509.76     0  02:46      1.80    1.84    1.00
  YS02001602YS02001605 CONDUIT    509.83     0  02:46      1.80   10.79    1.00
  YS02001605YS02001607 CONDUIT    510.03     0  02:47      1.80    2.80    1.00
  YS02001607YS02001610 CONDUIT    511.04     0  02:47      0.65    0.49    1.00
  YS02001610YS02001613 CONDUIT    510.79     0  02:47      0.65    0.59    1.00
  YS02001613YS02001616 CONDUIT    510.91     0  02:47      0.65    0.44    1.00
  YS02001616YS02001619 CONDUIT    511.02     0  02:47      0.68    0.89    1.00
  YS02001619YS02001622 CONDUIT    963.31     0  02:39      1.23    1.42    1.00
  YS02001622YS02001625 CONDUIT    963.63     0  02:39      1.23    0.51    1.00
  YS02001625YS02001629 CONDUIT    963.13     0  02:39      1.23    0.46    1.00
  YS02001629YS02163301 CONDUIT    965.16     0  02:39      1.23    1.19    1.00
  YS02001633YS02163601 CONDUIT   1376.87     0  02:18      1.75    1.45    1.00
  YS02001641YS02001644 CONDUIT   1376.29     0  02:18      1.75    4.45    1.00
  YS02001644YS02001647 CONDUIT   1776.74     0  02:18      2.26    1.04    1.00
  YS02001647YS02001649 CONDUIT   1793.98     0  02:18      2.32    0.95    1.00
  YS02001649YS02001757 CONDUIT   2039.13     0  02:19      2.60    1.24    1.00
  YS02001652YS02001649 CONDUIT    831.07     0  02:25      1.06    0.41    1.00
  YS02001655YS02001652 CONDUIT    831.20     0  02:25      1.22    0.40    1.00
  YS02001658YS02001655 CONDUIT    831.38     0  02:25      1.83    0.35    1.00
  YS02001661YS02001658 CONDUIT    830.80     0  02:25      2.29    0.33    1.00
  YS02001664YS02001661 CONDUIT    902.44     0  02:24      2.27    0.28    0.72
  YS02001745YS02001748 CONDUIT    541.93     0  02:22      2.14    0.21    0.86
  YS02001748YS02001751 CONDUIT    545.39     0  02:24      1.64    0.28    1.00
  YS02001751YS02001754 CONDUIT    526.60     0  02:25      1.36    0.25    1.00
  YS02001754YS02001757 CONDUIT    526.97     0  02:25      0.67    0.21    1.00
  YS02001757CaochengTiaoxuchi CONDUIT   3469.53     0  02:25      5.99    1.50    0.92
  YS02001759YS02001757 CONDUIT   1407.07     0  02:24      1.79    1.00    1.00
  YS02001762YS02001759 CONDUIT    815.45     0  02:28      1.04    0.94    1.00
  YS02001765YS02001762 CONDUIT    814.75     0  02:28      1.04    0.76    1.00
  YS02001767YS02001765 CONDUIT    814.07     0  02:28      1.04    1.02    1.00
  YS02001770YS02001767 CONDUIT    813.22     0  02:28      1.04    3.22    1.00
  YS02001774YS02001770 CONDUIT    310.28     0  02:25      0.40    0.20    1.00
  YS02001779YS02001774 CONDUIT    310.60     0  02:25      0.40    0.16    1.00
  YS02001783YS02001784 CONDUIT   1163.89     0  02:23      2.32    1.60    1.00
  YS02001784YS02001785 CONDUIT   1165.49     0  02:23      2.32    2.71    1.00
  YS02001786YS02001788 CONDUIT   1165.31     0  02:23      2.48    2.25    0.89
  YS02001788YS02001790 CONDUIT   1173.98     0  02:22      2.72    0.87    0.84
  YS02001790YS02001791 CONDUIT   1292.65     0  02:25      3.42    1.41    0.71
  YS02001791YS02001793 CONDUIT   1261.96     0  02:25      6.74    0.54    0.42
  YS02001793JiankangQianchi CONDUIT   1385.69     0  02:24     15.02    0.11    0.50
  YS02001882YS02001884 CONDUIT     33.17     0  02:16      0.12    0.04    1.00
  YS02001884YS02001887 CONDUIT     46.91     0  02:15      0.08    0.06    1.00
  YS02001887YS02001890 CONDUIT    761.54     0  02:25      0.97    1.30    1.00
  YS02001890YS02001895 CONDUIT    552.87     0  02:24      0.70    0.26    1.00
  YS02001895YS02001898 CONDUIT    563.85     0  02:24      0.72    0.98    1.00
  YS02001898YS02001901 CONDUIT    517.79     0  02:27      0.66    0.33    1.00
  YS02001901YS02001904 CONDUIT    520.33     0  02:24      0.66    0.81    1.00
  YS02001904YS02001907 CONDUIT    524.43     0  02:24      0.67    0.18    1.00
  YS02001907YS02006553 CONDUIT    802.12     0  02:37      0.89    0.94    1.00
  YS02001910YS02001907 CONDUIT   1331.56     0  02:25      1.70    0.75    1.00
  YS02001915YS02001910 CONDUIT   1331.66     0  02:25      1.70    0.66    1.00
  YS02001918YS02001915 CONDUIT    453.36     0  02:25      0.58    0.25    1.00
  YS02001920YS02001918 CONDUIT    473.34     0  02:24      0.67    0.46    1.00
  YS02001923YS02001920 CONDUIT    484.29     0  02:24      0.69    0.22    1.00
  YS02001926YS02001923 CONDUIT    449.63     0  02:25      0.94    0.64    1.00
  YS02001929YS02001926 CONDUIT    448.78     0  02:25      1.08    0.21    1.00
  YS02006553YS02006556 CONDUIT    801.92     0  02:37      1.02    0.69    1.00
  YS02006556YS02006558 CONDUIT    802.70     0  02:37      1.02    0.63    1.00
  YS02006558YS02006561 CONDUIT   1163.86     0  02:23      4.12    2.57    1.00
  YS02006561YS02001783 CONDUIT   1164.11     0  02:23      2.32    0.60    1.00
  YS02163301YS02001633 CONDUIT    965.08     0  02:39      1.23    0.91    1.00
  YS02163601YS02164001 CONDUIT   1376.73     0  02:18      1.75    1.22    1.00
  YS02164001YS02001641 CONDUIT   1376.14     0  02:18      1.75    1.88    1.00
  CC-R1                PUMP       683.00     0  00:00              1.00
  CC-R2                PUMP       683.00     0  00:00              1.00
  CC-S1                PUMP       200.00     0  00:00              1.00
  CC-S2                PUMP       200.00     0  00:00              1.00
  JK-R1                PUMP      1000.00     0  00:00              1.00
  JK-R2                PUMP      1000.00     0  00:00              1.00
  JK-S                 PUMP       300.00     0  00:00              1.00
  
  
  ***************************
  Flow Classification Summary
  ***************************
  
  -------------------------------------------------------------------------------------
                      Adjusted    ---------- Fraction of Time in Flow Class ---------- 
                       /Actual         Up    Down  Sub   Sup   Up    Down  Norm  Inlet 
  Conduit               Length    Dry  Dry   Dry   Crit  Crit  Crit  Crit  Ltd   Ctrl  
  -------------------------------------------------------------------------------------
  1                       1.00   0.00  0.00  0.00  0.00  1.00  0.00  0.00  0.63  0.00
  WS02003060WS02003069    1.00   0.00  0.00  0.00  0.97  0.03  0.00  0.00  0.77  0.00
  WS02003066WSF200        1.00   0.05  0.00  0.00  0.00  0.95  0.00  0.00  0.92  0.00
  WS02003067WS02003066    1.00   0.05  0.00  0.00  0.95  0.00  0.00  0.00  0.00  0.00
  WS02003069WS02003072    1.00   0.00  0.00  0.00  0.99  0.01  0.00  0.00  0.81  0.00
  WS02003072WS02003073    1.00   0.00  0.00  0.00  0.00  0.00  0.00  1.00  0.00  0.00
  WS02004401WS02004402    1.00   0.02  0.00  0.00  0.98  0.00  0.00  0.00  0.00  0.00
  WS02004402WS02004403    1.00   0.02  0.00  0.00  0.98  0.00  0.00  0.00  0.00  0.00
  WS02004403WS02004404    1.00   0.00  0.03  0.00  0.97  0.00  0.00  0.00  0.00  0.00
  WS02004404WS02004405    1.00   0.00  0.00  0.00  1.00  0.00  0.00  0.00  0.01  0.00
  WS02004405WS02004406    1.00   0.00  0.00  0.00  1.00  0.00  0.00  0.00  0.00  0.00
  WS02004406WS02004407    1.00   0.00  0.03  0.00  0.97  0.00  0.00  0.00  0.00  0.00
  WS02004407WS02004409    1.00   0.03  0.00  0.00  0.96  0.01  0.00  0.00  0.96  0.00
  WS02004409WS02004410    1.00   0.03  0.00  0.00  0.96  0.00  0.00  0.00  0.00  0.00
  WS02004410WS02004411    1.00   0.04  0.00  0.00  0.96  0.00  0.00  0.00  0.00  0.00
  WS02004411WS02004412    1.00   0.04  0.00  0.00  0.96  0.00  0.00  0.00  0.00  0.00
  WS02004412WS02004413    1.00   0.04  0.00  0.00  0.96  0.00  0.00  0.00  0.00  0.00
  WS02004413WS02003067    1.00   0.04  0.01  0.00  0.00  0.00  0.95  0.00  0.00  0.00
  WS02006109WS02006110    1.00   0.00  0.01  0.00  0.98  0.00  0.01  0.00  0.00  0.00
  WS02006110WS02006113    1.00   0.01  0.01  0.00  0.98  0.00  0.00  0.00  0.00  0.00
  WS02006111WS02006112    1.00   0.02  0.00  0.00  0.98  0.00  0.00  0.00  0.98  0.00
  WS02006112WS02006115    1.00   0.02  0.00  0.00  0.97  0.00  0.00  0.00  0.00  0.00
  WS02006113WS02006111    1.00   0.02  0.00  0.00  0.00  0.98  0.00  0.00  0.11  0.00
  WS02006115WS02006116    1.00   0.02  0.00  0.00  0.97  0.00  0.00  0.01  0.00  0.00
  WS02006116WS02004401    1.00   0.02  0.00  0.00  0.98  0.00  0.00  0.00  0.00  0.00
  WS02006228WS02006109    1.00   0.00  0.00  0.00  1.00  0.00  0.00  0.00  0.00  0.00
  WS02006229WS02006228    1.00   0.00  0.00  0.00  0.99  0.00  0.00  0.01  0.00  0.00
  WS02006230WS02006229    1.00   0.00  0.00  0.00  0.99  0.00  0.00  0.01  0.03  0.00
  WS02006231WS02006230    1.00   0.00  0.00  0.00  0.20  0.00  0.80  0.00  0.00  0.00
  WS02006232WS02006231    1.00   0.00  0.00  0.00  0.99  0.00  0.01  0.00  0.00  0.00
  WS02006234WS02006232    1.00   0.00  0.00  0.00  1.00  0.00  0.00  0.00  0.22  0.00
  WS02006235WS02006234    1.00   0.00  0.00  0.00  0.54  0.00  0.46  0.00  0.00  0.00
  WS02006238WS02006235    1.00   0.00  0.00  0.00  1.00  0.00  0.00  0.00  0.01  0.00
  WS02006239WS02006238    1.00   0.00  0.00  0.00  1.00  0.00  0.00  0.00  0.38  0.00
  WS02006240WS02006239    1.00   0.00  0.00  0.00  0.48  0.00  0.00  0.52  0.04  0.00
  WS02006242WS02006240    1.00   0.00  0.00  0.00  0.99  0.00  0.01  0.00  0.00  0.00
  WS02006243WS02006242    1.00   0.00  0.00  0.00  0.99  0.00  0.00  0.01  0.69  0.00
  WS02006245WS02006243    1.00   0.00  0.00  0.00  0.46  0.00  0.00  0.54  0.01  0.00
  WS02006247WS02006245    1.00   0.00  0.00  0.00  0.99  0.00  0.00  0.01  0.00  0.00
  WS02006248WS02006247    1.00   0.00  0.00  0.00  0.99  0.00  0.00  0.01  0.19  0.00
  WS02006249WS02006248    1.00   0.00  0.00  0.00  0.30  0.00  0.70  0.00  0.00  0.00
  WS02006251WS02006249    1.00   0.00  0.00  0.00  1.00  0.00  0.00  0.00  0.70  0.00
  WS02006252WS02006251    1.00   0.00  0.75  0.00  0.06  0.00  0.19  0.00  0.07  0.00
  WS02006256WS02006235    1.00   0.00  0.00  0.00  0.99  0.01  0.00  0.00  0.01  0.00
  WSF200WS02003060        1.00   0.00  0.05  0.00  0.52  0.43  0.00  0.00  0.73  0.00
  YS02001580YS02001583    1.00   0.28  0.54  0.00  0.18  0.00  0.00  0.00  0.63  0.00
  YS02001583YS02001586    1.00   0.40  0.36  0.00  0.24  0.00  0.00  0.00  0.64  0.00
  YS02001586YS02001590    1.00   0.13  0.00  0.00  0.45  0.04  0.00  0.38  0.39  0.00
  YS02001590YS02001593    1.00   0.13  0.01  0.00  0.11  0.00  0.76  0.00  0.00  0.00
  YS02001593YS02001596    1.00   0.14  0.00  0.00  0.13  0.01  0.00  0.73  0.02  0.00
  YS02001596YS02001600    1.00   0.14  0.00  0.00  0.20  0.02  0.00  0.65  0.05  0.00
  YS02001600YS02001601    1.00   0.13  0.01  0.00  0.86  0.00  0.00  0.00  0.59  0.00
  YS02001601YS02001602    1.00   0.13  0.01  0.00  0.86  0.00  0.00  0.00  0.00  0.00
  YS02001602YS02001605    1.00   0.14  0.00  0.00  0.86  0.00  0.00  0.00  0.00  0.00
  YS02001605YS02001607    1.00   0.14  0.00  0.00  0.86  0.00  0.00  0.00  0.00  0.00
  YS02001607YS02001610    1.00   0.13  0.01  0.00  0.86  0.00  0.00  0.00  0.01  0.00
  YS02001610YS02001613    1.00   0.13  0.00  0.00  0.87  0.00  0.00  0.00  0.00  0.00
  YS02001613YS02001616    1.00   0.13  0.00  0.00  0.87  0.00  0.00  0.00  0.00  0.00
  YS02001616YS02001619    1.00   0.13  0.00  0.00  0.87  0.00  0.00  0.00  0.00  0.00
  YS02001619YS02001622    1.00   0.13  0.00  0.00  0.87  0.00  0.00  0.00  0.27  0.00
  YS02001622YS02001625    1.00   0.13  0.00  0.00  0.87  0.00  0.00  0.00  0.05  0.00
  YS02001625YS02001629    1.00   0.13  0.05  0.00  0.15  0.00  0.67  0.00  0.00  0.00
  YS02001629YS02163301    1.00   0.16  0.01  0.00  0.83  0.00  0.00  0.00  0.00  0.00
  YS02001633YS02163601    1.00   0.00  0.01  0.00  0.99  0.00  0.00  0.00  0.15  0.00
  YS02001641YS02001644    1.00   0.00  0.01  0.00  0.99  0.00  0.00  0.00  0.00  0.00
  YS02001644YS02001647    1.00   0.00  0.18  0.00  0.82  0.00  0.00  0.00  0.00  0.00
  YS02001647YS02001649    1.00   0.00  0.17  0.00  0.47  0.35  0.00  0.00  0.55  0.00
  YS02001649YS02001757    1.00   0.00  0.00  0.00  0.63  0.37  0.00  0.00  0.51  0.00
  YS02001652YS02001649    1.00   0.00  0.00  0.00  0.96  0.04  0.00  0.00  0.74  0.00
  YS02001655YS02001652    1.00   0.00  0.00  0.00  0.17  0.02  0.00  0.81  0.09  0.00
  YS02001658YS02001655    1.00   0.00  0.14  0.00  0.59  0.27  0.00  0.00  0.74  0.00
  YS02001661YS02001658    1.00   0.14  0.00  0.00  0.43  0.43  0.00  0.00  0.73  0.00
  YS02001664YS02001661    1.00   0.13  0.00  0.00  0.74  0.14  0.00  0.00  0.86  0.00
  YS02001745YS02001748    1.00   0.00  0.00  0.00  0.03  0.01  0.00  0.96  0.02  0.00
  YS02001748YS02001751    1.00   0.00  0.00  0.00  0.75  0.25  0.00  0.00  0.79  0.00
  YS02001751YS02001754    1.00   0.00  0.00  0.00  0.11  0.01  0.00  0.88  0.05  0.00
  YS02001754YS02001757    1.00   0.00  0.00  0.00  1.00  0.00  0.00  0.00  0.86  0.00
  YS02001757CaochengTiaoxuchi    1.00   0.00  0.00  0.00  0.68  0.32  0.00  0.00  0.75  0.00
  YS02001759YS02001757    1.00   0.00  0.00  0.00  1.00  0.00  0.00  0.00  0.61  0.00
  YS02001762YS02001759    1.00   0.00  0.00  0.00  1.00  0.00  0.00  0.00  0.04  0.00
  YS02001765YS02001762    1.00   0.00  0.00  0.00  1.00  0.00  0.00  0.00  0.73  0.00
  YS02001767YS02001765    1.00   0.00  0.00  0.00  1.00  0.00  0.00  0.00  0.00  0.00
  YS02001770YS02001767    1.00   0.00  0.00  0.00  1.00  0.00  0.00  0.00  0.00  0.00
  YS02001774YS02001770    1.00   0.00  0.13  0.00  0.71  0.00  0.15  0.00  0.03  0.00
  YS02001779YS02001774    1.00   0.00  0.00  0.00  1.00  0.00  0.00  0.00  0.79  0.00
  YS02001783YS02001784    1.00   0.00  0.18  0.00  0.82  0.00  0.00  0.00  0.54  0.00
  YS02001784YS02001785    1.00   0.00  0.00  0.00  1.00  0.00  0.00  0.00  0.17  0.00
  YS02001786YS02001788    1.00   0.00  0.00  0.00  0.78  0.22  0.00  0.00  0.00  0.00
  YS02001788YS02001790    1.00   0.00  0.00  0.00  0.21  0.79  0.00  0.00  0.80  0.00
  YS02001790YS02001791    1.00   0.00  0.00  0.00  0.01  0.99  0.00  0.00  0.16  0.00
  YS02001791YS02001793    1.00   0.00  0.00  0.00  0.00  1.00  0.00  0.00  0.01  0.00
  YS02001793JiankangQianchi    1.00   0.00  0.00  0.00  0.43  0.57  0.00  0.00  0.77  0.00
  YS02001882YS02001884    1.00   0.15  0.01  0.00  0.84  0.00  0.00  0.00  0.00  0.00
  YS02001884YS02001887    1.00   0.06  0.05  0.00  0.89  0.00  0.00  0.00  0.00  0.00
  YS02001887YS02001890    1.00   0.00  0.00  0.00  0.97  0.00  0.03  0.00  0.00  0.00
  YS02001890YS02001895    1.00   0.00  0.16  0.00  0.83  0.00  0.00  0.00  0.00  0.00
  YS02001895YS02001898    1.00   0.17  0.00  0.00  0.81  0.00  0.02  0.00  0.00  0.00
  YS02001898YS02001901    1.00   0.17  0.00  0.00  0.83  0.00  0.00  0.00  0.01  0.00
  YS02001901YS02001904    1.00   0.17  0.00  0.00  0.83  0.00  0.00  0.00  0.00  0.00
  YS02001904YS02001907    1.00   0.00  0.17  0.00  0.83  0.00  0.00  0.00  0.00  0.00
  YS02001907YS02006553    1.00   0.00  0.02  0.00  0.98  0.00  0.00  0.00  0.00  0.00
  YS02001910YS02001907    1.00   0.00  0.00  0.00  0.97  0.00  0.00  0.03  0.12  0.00
  YS02001915YS02001910    1.00   0.00  0.00  0.00  0.96  0.04  0.00  0.00  0.16  0.00
  YS02001918YS02001915    1.00   0.00  0.01  0.00  0.98  0.02  0.00  0.00  0.75  0.00
  YS02001920YS02001918    1.00   0.00  0.01  0.00  0.99  0.00  0.00  0.00  0.00  0.00
  YS02001923YS02001920    1.00   0.00  0.00  0.00  1.00  0.00  0.00  0.00  0.93  0.00
  YS02001926YS02001923    1.00   0.00  0.07  0.00  0.05  0.00  0.87  0.00  0.00  0.00
  YS02001929YS02001926    1.00   0.00  0.13  0.00  0.87  0.00  0.00  0.00  0.82  0.00
  YS02006553YS02006556    1.00   0.01  0.00  0.00  0.99  0.00  0.00  0.00  0.03  0.00
  YS02006556YS02006558    1.00   0.00  0.00  0.00  1.00  0.00  0.00  0.00  0.00  0.00
  YS02006558YS02006561    1.00   0.18  0.00  0.00  0.05  0.77  0.00  0.00  0.20  0.00
  YS02006561YS02001783    1.00   0.18  0.00  0.00  0.09  0.73  0.00  0.00  0.68  0.00
  YS02163301YS02001633    1.00   0.00  0.15  0.00  0.85  0.00  0.00  0.00  0.00  0.00
  YS02163601YS02164001    1.00   0.00  0.08  0.00  0.92  0.00  0.00  0.00  0.00  0.00
  YS02164001YS02001641    1.00   0.01  0.08  0.00  0.92  0.00  0.00  0.00  0.06  0.00
  
  
  *************************
  Conduit Surcharge Summary
  *************************
  
  ----------------------------------------------------------------------------
                                                           Hours        Hours 
                         --------- Hours Full --------   Above Full   Capacity
  Conduit                Both Ends  Upstream  Dnstream   Normal Flow   Limited
  ----------------------------------------------------------------------------
  WS02003072WS02003073        0.01      0.01      0.01      0.63         0.01
  WS02004404WS02004405        0.01      0.01      0.01      2.27         0.01
  WS02006109WS02006110        0.01      0.01      1.47      0.01         0.01
  WS02006110WS02006113        0.01      0.01      1.45      0.01         0.01
  WS02006111WS02006112        0.01      0.01      1.54      0.01         0.01
  WS02006112WS02006115        0.01      0.01      0.37      0.01         0.01
  WS02006228WS02006109        1.39      1.47      1.39      1.83         1.39
  WS02006229WS02006228        1.37      1.40      1.37      1.68         1.37
  WS02006230WS02006229        1.55      1.61      1.55      2.68         1.55
  WS02006231WS02006230        0.01      0.01      0.22      2.41         0.01
  WS02006232WS02006231        0.08      0.08      1.48      0.21         0.01
  WS02006234WS02006232        1.11      1.11      1.48      0.10         0.27
  WS02006235WS02006234        0.61      0.66      1.24      2.25         0.16
  WS02006238WS02006235        1.37      1.37      1.50      0.01         0.08
  WS02006239WS02006238        1.43      1.49      1.44      1.66         1.16
  WS02006240WS02006239        1.36      1.43      1.36      1.68         1.14
  WS02006242WS02006240        1.40      1.40      1.56      1.80         0.03
  WS02006243WS02006242        1.44      1.44      1.52      0.01         0.24
  WS02006245WS02006243        1.42      1.43      1.42      1.77         1.17
  WS02006247WS02006245        1.42      1.46      1.42      1.93         1.30
  WS02006248WS02006247        1.42      1.42      1.44      0.01         0.37
  WS02006249WS02006248        1.41      1.41      1.43      1.91         0.01
  WS02006251WS02006249        1.43      1.44      1.43      1.89         1.09
  WS02006252WS02006251        1.93      1.93      1.93      1.93         0.01
  WS02006256WS02006235        1.88      2.31      3.84      0.46         0.08
  YS02001580YS02001583        0.55      0.55      0.57      0.01         0.01
  YS02001583YS02001586        0.55      0.55      0.64      0.01         0.01
  YS02001586YS02001590        0.65      0.65      0.72      0.01         0.01
  YS02001590YS02001593        0.72      0.72      0.74      0.76         0.01
  YS02001593YS02001596        0.74      0.74      0.84      0.01         0.01
  YS02001596YS02001600        0.90      0.90      1.01      0.01         0.01
  YS02001600YS02001601        1.07      1.07      1.37      0.01         0.01
  YS02001601YS02001602        1.25      1.25      1.42      1.04         0.01
  YS02001602YS02001605        1.19      1.19      1.25      2.33         0.01
  YS02001605YS02001607        1.14      1.19      1.14      1.33         1.14
  YS02001607YS02001610        0.66      0.66      0.68      0.01         0.01
  YS02001610YS02001613        0.65      0.65      0.68      0.01         0.01
  YS02001613YS02001616        0.60      0.60      0.65      0.01         0.01
  YS02001616YS02001619        0.59      0.59      0.60      0.01         0.01
  YS02001619YS02001622        0.58      0.59      0.58      0.77         0.56
  YS02001622YS02001625        0.58      0.58      0.78      0.01         0.01
  YS02001625YS02001629        0.49      0.49      0.78      0.01         0.01
  YS02001629YS02163301        0.76      0.76      0.77      0.36         0.35
  YS02001633YS02163601        0.79      0.79      0.82      0.48         0.48
  YS02001641YS02001644        0.59      0.66      0.59      1.46         0.59
  YS02001644YS02001647        0.35      0.35      0.59      0.04         0.01
  YS02001647YS02001649        0.35      0.35      0.38      0.01         0.01
  YS02001649YS02001757        0.37      0.38      0.37      0.42         0.29
  YS02001652YS02001649        0.28      0.28      0.38      0.01         0.01
  YS02001655YS02001652        0.21      0.21      0.27      0.01         0.01
  YS02001658YS02001655        0.13      0.13      0.21      0.01         0.01
  YS02001661YS02001658        0.01      0.01      0.13      0.01         0.01
  YS02001664YS02001661        0.01      0.01      0.03      0.01         0.01
  YS02001745YS02001748        0.01      0.01      0.06      0.01         0.01
  YS02001748YS02001751        0.11      0.11      0.15      0.01         0.01
  YS02001751YS02001754        0.15      0.15      0.20      0.01         0.01
  YS02001754YS02001757        0.22      0.22      0.37      0.01         0.01
  YS02001757CaochengTiaoxuchi        0.01      0.37      0.01      0.48         0.01
  YS02001759YS02001757        0.32      0.32      0.37      0.01         0.03
  YS02001762YS02001759        0.30      0.30      0.32      0.01         0.03
  YS02001765YS02001762        0.28      0.28      0.30      0.01         0.01
  YS02001767YS02001765        0.27      0.27      0.28      0.01         0.05
  YS02001770YS02001767        0.27      0.27      0.27      0.55         0.26
  YS02001774YS02001770        0.26      0.26      0.30      0.01         0.01
  YS02001779YS02001774        0.22      0.22      0.30      0.01         0.01
  YS02001783YS02001784        0.46      0.49      0.46      0.66         0.46
  YS02001784YS02001785        0.35      0.46      0.35      0.90         0.35
  YS02001786YS02001788        0.01      0.35      0.01      0.77         0.01
  YS02001790YS02001791        0.01      0.01      0.01      0.45         0.01
  YS02001882YS02001884        0.43      0.43      0.44      0.01         0.01
  YS02001884YS02001887        0.47      0.47      0.48      0.01         0.01
  YS02001887YS02001890        0.49      0.49      0.51      0.09         0.01
  YS02001890YS02001895        0.42      0.42      0.52      0.01         0.01
  YS02001895YS02001898        0.42      0.42      0.42      0.01         0.01
  YS02001898YS02001901        0.43      0.43      0.46      0.01         0.01
  YS02001901YS02001904        0.46      0.46      0.46      0.01         0.01
  YS02001904YS02001907        0.46      0.46      0.75      0.01         0.01
  YS02001907YS02006553        0.91      0.91      1.00      0.01         0.01
  YS02001910YS02001907        0.52      0.52      0.74      0.01         0.01
  YS02001915YS02001910        0.43      0.43      0.52      0.01         0.01
  YS02001918YS02001915        0.35      0.35      0.43      0.01         0.01
  YS02001920YS02001918        0.35      0.35      0.36      0.01         0.01
  YS02001923YS02001920        0.31      0.31      0.36      0.01         0.01
  YS02001926YS02001923        0.05      0.05      0.11      0.01         0.01
  YS02001929YS02001926        0.01      0.01      0.11      0.01         0.01
  YS02006553YS02006556        0.62      0.62      0.75      0.01         0.01
  YS02006556YS02006558        0.69      0.69      0.77      0.01         0.01
  YS02006558YS02006561        0.38      0.60      0.38      0.86         0.38
  YS02006561YS02001783        0.31      0.31      0.49      0.01         0.01
  YS02163301YS02001633        0.77      0.77      0.82      0.01         0.02
  YS02163601YS02164001        0.68      0.68      0.82      0.31         0.01
  YS02164001YS02001641        0.66      0.68      0.66      0.74         0.53
  
  
  ***************
  Pumping Summary
  ***************
  
  ---------------------------------------------------------------------------------------------------------
                                                  Min       Avg       Max     Total     Power    % Time Off
                        Percent   Number of      Flow      Flow      Flow    Volume     Usage    Pump Curve
  Pump                 Utilized   Start-Ups       LPS       LPS       LPS  10^6 ltr     Kw-hr    Low   High
  ---------------------------------------------------------------------------------------------------------
  CC-R1                   24.45           5      0.00    683.00    683.00     4.759     77.74    0.0  100.0
  CC-R2                   24.45           5      0.00    683.00    683.00     4.759     77.74    0.0  100.0
  CC-S1                   24.45           5      0.00    200.00    200.00     1.394     10.76    0.0   35.1
  CC-S2                   24.45           5      0.00    200.00    200.00     1.394     10.76    0.0   35.1
  JK-R1                    6.40         268      0.00   1000.00   1000.00     1.825      4.91    0.0    0.0
  JK-R2                    6.40         268      0.00   1000.00   1000.00     1.825      4.91    0.0    0.0
  JK-S                     6.40         268      0.00    300.00    300.00     0.547     12.36    0.0    0.0
  

  Analysis begun on:  Tue Apr 22 10:15:03 2025
  Analysis ended on:  Tue Apr 22 10:15:04 2025
  Total elapsed time: 00:00:01