
  EPA STORM WATER MANAGEMENT MODEL - VERSION 5.2 (Build 5.2.4)
  PYSWMM TOOLKIT API - VERSION v1.0 (2023-11-27)
  ------------------------------------------------------------

  WARNING 04: minimum elevation drop used for Conduit WS02004404WS02004405
  WARNING 03: negative offset ignored for Link YS02001904YS02001907
  
  ****************
  Analysis Options
  ****************
  Flow Units ............... LPS
  Process Models:
    Rainfall/Runoff ........ YES
    RDII ................... NO
    Snowmelt ............... NO
    Groundwater ............ NO
    Flow Routing ........... YES
    Ponding Allowed ........ NO
    Water Quality .......... NO
  Infiltration Method ...... HORTON
  Flow Routing Method ...... DYNWAVE
  Surcharge Method ......... EXTRAN
  Starting Date ............ 08/28/2015 08:00:00
  Ending Date .............. 08/28/2015 16:00:00
  Antecedent Dry Days ...... 8.0
  Report Time Step ......... 00:01:00
  Wet Time Step ............ 00:01:00
  Dry Time Step ............ 00:01:00
  Routing Time Step ........ 30.00 sec
  Variable Time Step ....... YES
  Maximum Trials ........... 8
  Number of Threads ........ 4
  Head Tolerance ........... 0.001500 m
  
  
  **************************        Volume         Depth
  Runoff Quantity Continuity     hectare-m            mm
  **************************     ---------       -------
  Total Precipitation ......         2.125        64.074
  Evaporation Loss .........         0.000         0.000
  Infiltration Loss ........         0.100         3.002
  Surface Runoff ...........         1.993        60.091
  Final Storage ............         0.033         0.997
  Continuity Error (%) .....        -0.024
  
  
  **************************        Volume        Volume
  Flow Routing Continuity        hectare-m      10^6 ltr
  **************************     ---------     ---------
  Dry Weather Inflow .......         0.025         0.248
  Wet Weather Inflow .......         1.993        19.929
  Groundwater Inflow .......         0.000         0.000
  RDII Inflow ..............         0.000         0.000
  External Inflow ..........         0.083         0.825
  External Outflow .........         1.701        17.010
  Flooding Loss ............         0.574         5.744
  Evaporation Loss .........         0.000         0.000
  Exfiltration Loss ........         0.000         0.000
  Initial Stored Volume ....         0.243         2.431
  Final Stored Volume ......         0.085         0.848
  Continuity Error (%) .....        -0.719
  
  
  *************************
  Highest Continuity Errors
  *************************
  Node WS02006256 (-14.34%)
  Node YS02001884 (5.28%)
  Node YS02001583 (-4.41%)
  Node JK-storage (-1.87%)
  
  
  ***************************
  Time-Step Critical Elements
  ***************************
  Link WS02004404WS02004405 (24.05%)
  Link YS02001793JiankangQianchi (20.99%)
  Link WS02006238WS02006235 (20.02%)
  Link WS02003066WSF200 (11.79%)
  Link YS02006556YS02006558 (4.53%)
  
  
  ********************************
  Highest Flow Instability Indexes
  ********************************
  Link WS02006113WS02006111 (35)
  Link WS02006229WS02006228 (32)
  Link WS02006252WS02006251 (31)
  Link WS02006256WS02006235 (27)
  Link WS02006238WS02006235 (22)
  
  
  *********************************
  Most Frequent Nonconverging Nodes
  *********************************
  Node CC-1 (35.06%)
  Node CC-2 (35.06%)
  Node JK-1 (35.06%)
  Node JK-2 (35.06%)
  Node WSC (35.06%)
  
  
  *************************
  Routing Time Step Summary
  *************************
  Minimum Time Step           :     0.01 sec
  Average Time Step           :     3.19 sec
  Maximum Time Step           :     6.43 sec
  % of Time in Steady State   :     0.00
  Average Iterations per Step :     4.44
  % of Steps Not Converging   :    35.06
  Time Step Frequencies       :
     30.000 - 13.228 sec      :     0.00 %
     13.228 -  5.833 sec      :    21.64 %
      5.833 -  2.572 sec      :    28.22 %
      2.572 -  1.134 sec      :    37.22 %
      1.134 -  0.500 sec      :    12.92 %
  
  
  ***************************
  Subcatchment Runoff Summary
  ***************************
  
  ------------------------------------------------------------------------------------------------------------------------------
                            Total      Total      Total      Total     Imperv       Perv      Total       Total     Peak  Runoff
                           Precip      Runon       Evap      Infil     Runoff     Runoff     Runoff      Runoff   Runoff   Coeff
  Subcatchment                 mm         mm         mm         mm         mm         mm         mm    10^6 ltr      LPS
  ------------------------------------------------------------------------------------------------------------------------------
  sub60                     64.07       0.00       0.00       1.79      55.18       5.90      61.09        0.80   600.83   0.953
  sub61                     64.07       0.00       0.00       2.60      52.05       8.30      60.35        1.11   835.23   0.942
  sub62                     64.07       0.00       0.00       1.19      57.66       3.94      61.60        1.69  1164.74   0.961
  sub63                     64.07       0.00       0.00       4.82      44.52      13.77      58.29        1.32   938.51   0.910
  sub64                     64.07       0.00       0.00       2.43      53.26       7.18      60.44        1.45   956.86   0.943
  sub65                     64.07       0.00       0.00       2.10      54.49       6.23      60.72        1.67  1069.55   0.948
  sub66                     64.07       0.00       0.00       6.00      44.41      12.58      56.99        2.66  1402.42   0.889
  sub67                     64.07       0.00       0.00       1.15      57.71       3.98      61.69        1.15   905.45   0.963
  sub68                     64.07       0.00       0.00       2.15      53.92       6.82      60.74        1.67  1197.71   0.948
  sub69                     64.07       0.00       0.00       1.92      54.35       7.69      62.04        2.30  1421.33   0.968
  sub70                     64.07       0.00       0.00       6.49      42.12      15.30      57.42        1.66   786.42   0.896
  sub71                     64.07       0.00       0.00       1.23      57.62       3.90      61.52        1.61  1033.62   0.960
  sub72                     64.07       0.00       0.00       1.09      58.18       3.40      61.58        0.85   499.51   0.961
  
  
  ******************
  Node Depth Summary
  ******************
  
  ---------------------------------------------------------------------------------
                                 Average  Maximum  Maximum  Time of Max    Reported
                                   Depth    Depth      HGL   Occurrence   Max Depth
  Node                 Type       Meters   Meters   Meters  days hr:min      Meters
  ---------------------------------------------------------------------------------
  WS02003060           JUNCTION     0.20     0.36     5.30     0  02:27        0.36
  WS02003066           JUNCTION     0.17     0.29     5.84     0  02:28        0.29
  WS02003067           JUNCTION     0.45     0.68     6.00     0  02:26        0.68
  WS02003069           JUNCTION     0.22     0.41     4.99     0  02:27        0.41
  WS02003072           JUNCTION     0.28     0.48     4.85     0  02:28        0.48
  WS02003073           JUNCTION     0.16     0.28     4.35     0  02:30        0.28
  WS02004401           JUNCTION     0.54     0.83     6.83     0  02:23        0.83
  WS02004402           JUNCTION     0.57     0.86     6.82     0  02:23        0.86
  WS02004403           JUNCTION     0.59     0.88     6.81     0  02:26        0.88
  WS02004404           JUNCTION     0.67     0.97     6.82     0  02:28        0.96
  WS02004405           JUNCTION     0.66     0.93     6.78     0  02:24        0.93
  WS02004406           JUNCTION     0.67     0.93     6.76     0  02:24        0.93
  WS02004407           JUNCTION     0.15     0.28     6.59     0  02:24        0.28
  WS02004409           JUNCTION     0.33     0.63     6.40     0  02:24        0.63
  WS02004410           JUNCTION     0.36     0.65     6.37     0  02:27        0.65
  WS02004411           JUNCTION     0.38     0.66     6.34     0  02:27        0.66
  WS02004412           JUNCTION     0.40     0.67     6.31     0  02:28        0.67
  WS02004413           JUNCTION     0.55     0.83     6.30     0  02:28        0.83
  WS02006109           JUNCTION     0.61     0.93     7.55     0  02:22        0.92
  WS02006110           JUNCTION     0.61     0.89     7.48     0  02:22        0.89
  WS02006111           JUNCTION     0.16     0.27     6.98     0  02:23        0.27
  WS02006112           JUNCTION     0.70     1.02     6.91     0  02:24        1.01
  WS02006113           JUNCTION     0.24     0.43     7.33     0  02:22        0.43
  WS02006115           JUNCTION     0.43     0.72     6.86     0  02:23        0.72
  WS02006116           JUNCTION     0.51     0.81     6.85     0  02:23        0.80
  WS02006228           JUNCTION     0.60     0.97     7.62     0  02:22        0.94
  WS02006229           JUNCTION     0.57     0.96     7.66     0  02:22        0.94
  WS02006230           JUNCTION     0.57     1.04     7.78     0  02:22        1.01
  WS02006231           JUNCTION     0.37     1.28     8.40     0  02:32        0.79
  WS02006232           JUNCTION     0.50     2.18     9.22     0  02:22        2.18
  WS02006234           JUNCTION     0.42     1.96     9.12     0  02:08        1.96
  WS02006235           JUNCTION     0.46     2.00     9.16     0  02:09        2.00
  WS02006238           JUNCTION     0.49     2.15     9.29     0  02:08        2.15
  WS02006239           JUNCTION     0.46     2.03     9.24     0  02:08        2.03
  WS02006240           JUNCTION     0.44     2.10     9.39     0  02:08        2.10
  WS02006242           JUNCTION     0.51     1.55     8.82     0  02:07        1.55
  WS02006243           JUNCTION     0.44     1.48     8.90     0  02:08        1.48
  WS02006245           JUNCTION     0.45     1.56     9.04     0  02:08        1.56
  WS02006247           JUNCTION     0.47     1.47     8.97     0  02:08        1.47
  WS02006248           JUNCTION     0.44     1.10     8.69     0  02:03        1.10
  WS02006249           JUNCTION     0.47     1.09     8.69     0  02:04        1.09
  WS02006251           JUNCTION     0.47     1.19     8.86     0  02:26        1.16
  WS02006252           JUNCTION     0.30     1.50     9.74     0  00:00        0.72
  WS02006256           JUNCTION     0.81     2.35     9.28     0  00:00        2.35
  WSF200               JUNCTION     0.14     0.28     5.51     0  02:26        0.28
  YS02001580           JUNCTION     0.16     1.05     9.59     0  02:03        0.82
  YS02001583           JUNCTION     0.19     1.12     9.61     0  02:03        0.83
  YS02001586           JUNCTION     0.30     1.13     9.30     0  02:03        1.13
  YS02001590           JUNCTION     0.41     1.40     9.26     0  02:22        1.40
  YS02001593           JUNCTION     0.35     1.32     9.18     0  02:03        1.29
  YS02001596           JUNCTION     0.47     1.69     9.10     0  02:03        1.67
  YS02001600           JUNCTION     0.56     1.87     9.00     0  02:03        1.86
  YS02001601           JUNCTION     0.74     2.06     8.90     0  02:03        2.06
  YS02001602           JUNCTION     0.64     1.87     8.77     0  02:03        1.87
  YS02001605           JUNCTION     0.59     1.78     8.68     0  02:09        1.78
  YS02001607           JUNCTION     0.55     1.66     8.51     0  02:08        1.66
  YS02001610           JUNCTION     0.59     1.68     8.48     0  02:03        1.68
  YS02001613           JUNCTION     0.55     1.70     8.54     0  02:08        1.70
  YS02001616           JUNCTION     0.48     1.61     8.52     0  02:08        1.61
  YS02001619           JUNCTION     0.46     1.61     8.54     0  02:08        1.61
  YS02001622           JUNCTION     0.45     1.59     8.50     0  02:08        1.59
  YS02001625           JUNCTION     0.68     1.78     8.38     0  02:06        1.78
  YS02001629           JUNCTION     0.58     1.85     8.40     0  02:07        1.85
  YS02001633           JUNCTION     0.65     2.08     8.53     0  02:08        2.08
  YS02001641           JUNCTION     0.60     2.00     8.44     0  02:08        1.94
  YS02001644           JUNCTION     0.59     1.92     8.35     0  02:08        1.92
  YS02001647           JUNCTION     0.37     1.80     8.41     0  02:09        1.74
  YS02001649           JUNCTION     0.41     2.03     8.42     0  02:09        1.95
  YS02001652           JUNCTION     0.29     2.03     8.63     0  02:09        1.79
  YS02001655           JUNCTION     0.21     1.88     8.73     0  02:09        1.60
  YS02001658           JUNCTION     0.16     1.87     9.02     0  02:09        1.36
  YS02001661           JUNCTION     0.18     1.49     8.90     0  02:10        1.15
  YS02001664           JUNCTION     0.08     0.60     8.52     0  02:13        0.59
  YS02001745           JUNCTION     0.09     0.80     8.32     0  02:12        0.80
  YS02001748           JUNCTION     0.14     1.97     9.05     0  02:09        1.22
  YS02001751           JUNCTION     0.17     1.76     8.64     0  02:09        1.40
  YS02001754           JUNCTION     0.23     1.89     8.50     0  02:09        1.65
  YS02001757           JUNCTION     0.40     2.04     8.30     0  02:09        1.97
  YS02001759           JUNCTION     0.35     1.99     8.36     0  02:12        1.98
  YS02001762           JUNCTION     0.34     2.00     8.40     0  02:09        1.96
  YS02001765           JUNCTION     0.32     1.98     8.43     0  02:09        1.92
  YS02001767           JUNCTION     0.32     1.94     8.43     0  02:09        1.91
  YS02001770           JUNCTION     0.33     1.95     8.44     0  02:08        1.93
  YS02001774           JUNCTION     0.39     2.05     8.47     0  02:08        1.98
  YS02001779           JUNCTION     0.22     1.68     8.37     0  02:08        1.68
  YS02001783           JUNCTION     0.34     1.32     7.47     0  02:07        1.25
  YS02001784           JUNCTION     0.34     1.16     7.22     0  02:07        1.12
  YS02001786           JUNCTION     0.28     0.93     6.96     0  02:07        0.88
  YS02001788           JUNCTION     0.21     0.63     6.60     0  02:11        0.62
  YS02001790           JUNCTION     0.24     0.73     6.37     0  02:11        0.72
  YS02001791           JUNCTION     0.15     0.44     5.91     0  02:09        0.44
  YS02001793           JUNCTION     0.08     0.25     5.08     0  02:15        0.23
  YS02001882           JUNCTION     0.42     1.70     8.42     0  02:07        1.67
  YS02001884           JUNCTION     0.50     1.78     8.40     0  02:07        1.77
  YS02001887           JUNCTION     0.58     1.87     8.41     0  02:08        1.87
  YS02001890           JUNCTION     0.60     1.81     8.32     0  02:07        1.81
  YS02001895           JUNCTION     0.39     1.60     8.34     0  02:07        1.56
  YS02001898           JUNCTION     0.40     1.62     8.35     0  02:07        1.56
  YS02001901           JUNCTION     0.50     1.72     8.33     0  02:07        1.67
  YS02001904           JUNCTION     0.48     1.66     8.29     0  02:07        1.63
  YS02001907           JUNCTION     0.78     1.96     8.25     0  02:07        1.96
  YS02001910           JUNCTION     0.60     2.02     8.52     0  02:08        2.02
  YS02001915           JUNCTION     0.43     1.99     8.71     0  02:08        1.99
  YS02001918           JUNCTION     0.26     1.81     8.88     0  02:07        1.81
  YS02001920           JUNCTION     0.34     2.11     9.12     0  02:07        2.08
  YS02001923           JUNCTION     0.21     2.03     9.29     0  02:07        2.00
  YS02001926           JUNCTION     0.23     1.90     9.35     0  02:07        1.90
  YS02001929           JUNCTION     0.14     1.78     9.47     0  02:07        1.64
  YS02006553           JUNCTION     0.78     1.98     8.27     0  02:11        1.98
  YS02006556           JUNCTION     0.75     1.98     8.29     0  02:08        1.98
  YS02006558           JUNCTION     0.79     2.04     8.31     0  02:08        2.04
  YS02006561           JUNCTION     0.22     1.03     7.69     0  02:07        0.91
  YS02163301           JUNCTION     0.60     1.97     8.49     0  02:08        1.97
  YS02163601           JUNCTION     0.67     2.08     8.48     0  02:08        2.07
  YS02164001           JUNCTION     0.60     2.03     8.48     0  02:08        1.95
  CC-1                 OUTFALL      0.00     0.00     0.00     0  00:00        0.00
  CC-2                 OUTFALL      0.00     0.00     0.00     0  00:00        0.00
  JK-1                 OUTFALL      0.00     0.00     0.00     0  00:00        0.00
  JK-2                 OUTFALL      0.00     0.00     0.00     0  00:00        0.00
  WSC                  OUTFALL      0.15     0.28     0.95     0  02:30        0.28
  CC-storage           STORAGE      0.34     0.96     6.46     0  02:41        0.96
  JK-storage           STORAGE      0.11     2.99     3.79     0  00:00        0.68
  
  
  *******************
  Node Inflow Summary
  *******************
  
  -------------------------------------------------------------------------------------------------
                                  Maximum  Maximum                  Lateral       Total        Flow
                                  Lateral    Total  Time of Max      Inflow      Inflow     Balance
                                   Inflow   Inflow   Occurrence      Volume      Volume       Error
  Node                 Type           LPS      LPS  days hr:min    10^6 ltr    10^6 ltr     Percent
  -------------------------------------------------------------------------------------------------
  WS02003060           JUNCTION     16.53   502.43     0  02:26       0.471        3.75       0.049
  WS02003066           JUNCTION      0.00   485.63     0  02:28           0        3.28       0.040
  WS02003067           JUNCTION      0.00   485.54     0  02:28           0        3.29       0.121
  WS02003069           JUNCTION      0.32   502.64     0  02:27     0.00912        3.76       0.094
  WS02003072           JUNCTION      0.00   502.21     0  02:28           0        3.75       0.174
  WS02003073           JUNCTION      1.82   503.81     0  02:29      0.0519         3.8       0.131
  WS02004401           JUNCTION      0.00   490.02     0  02:23           0        3.38       0.296
  WS02004402           JUNCTION      0.00   488.87     0  02:23           0        3.37       0.301
  WS02004403           JUNCTION      0.00   489.40     0  02:24           0        3.36       0.296
  WS02004404           JUNCTION      0.16   504.98     0  02:28     0.00462        3.36       0.208
  WS02004405           JUNCTION      0.04   548.28     0  02:28     0.00109        3.35       0.332
  WS02004406           JUNCTION      0.00   491.32     0  02:24           0        3.34       0.620
  WS02004407           JUNCTION      0.00   488.27     0  02:24           0        3.32       0.025
  WS02004409           JUNCTION      0.00   487.83     0  02:24           0        3.32       0.066
  WS02004410           JUNCTION      0.00   487.31     0  02:25           0        3.31       0.122
  WS02004411           JUNCTION      0.00   486.99     0  02:25           0        3.31       0.157
  WS02004412           JUNCTION      0.00   486.53     0  02:25           0        3.31       0.211
  WS02004413           JUNCTION      0.00   486.16     0  02:25           0         3.3       0.399
  WS02006109           JUNCTION      1.23   499.61     0  02:22      0.0351        3.43       0.210
  WS02006110           JUNCTION      0.00   499.90     0  02:22           0        3.42       0.185
  WS02006111           JUNCTION      0.00   510.51     0  02:22           0        3.41       0.031
  WS02006112           JUNCTION      0.00   495.07     0  02:23           0        3.41       0.590
  WS02006113           JUNCTION      0.00   495.91     0  02:22           0        3.41       0.038
  WS02006115           JUNCTION      0.00   495.64     0  02:23           0        3.39       0.200
  WS02006116           JUNCTION      0.00   492.07     0  02:23           0        3.38       0.078
  WS02006228           JUNCTION      0.00   498.10     0  02:22           0        3.39       0.067
  WS02006229           JUNCTION      0.00   497.43     0  02:22           0         3.4       0.145
  WS02006230           JUNCTION     10.28   553.71     0  02:22       0.293         3.4       0.153
  WS02006231           JUNCTION      0.00   553.93     0  02:32           0        3.11      -0.074
  WS02006232           JUNCTION      0.00   547.59     0  02:32           0        3.12       0.263
  WS02006234           JUNCTION      0.00   542.71     0  02:03           0         3.1      -0.443
  WS02006235           JUNCTION      0.00   552.10     0  01:59           0        3.16       0.005
  WS02006238           JUNCTION      0.00   425.39     0  02:16           0        2.85      -0.154
  WS02006239           JUNCTION      0.00   422.30     0  02:43           0         2.8      -0.319
  WS02006240           JUNCTION      0.00   418.30     0  02:37           0        2.78      -0.151
  WS02006242           JUNCTION      0.00   418.36     0  02:37           0        2.78       0.032
  WS02006243           JUNCTION      0.00   419.10     0  02:37           0        2.78       0.030
  WS02006245           JUNCTION      0.00   418.72     0  02:36           0        2.79       0.537
  WS02006247           JUNCTION      0.00   419.21     0  02:36           0        2.79       0.012
  WS02006248           JUNCTION      0.00   419.88     0  02:38           0         2.8       0.123
  WS02006249           JUNCTION      0.00   476.58     0  01:54           0        2.82       0.472
  WS02006251           JUNCTION      0.08   402.16     0  03:55     0.00219        2.82      -0.044
  WS02006252           JUNCTION      0.00   400.00     0  00:00           0        2.82      -0.065
  WS02006256           JUNCTION      0.00   317.41     0  02:29           0       0.551     -12.544
  WSF200               JUNCTION      0.00   485.61     0  02:28           0        3.28       0.010
  YS02001580           JUNCTION      0.00    95.87     0  02:03           0     0.00416      -0.616
  YS02001583           JUNCTION      0.00   148.74     0  02:03           0      0.0152      -4.228
  YS02001586           JUNCTION    786.42   786.54     0  02:15        1.66        1.67       0.074
  YS02001590           JUNCTION      0.00   318.57     0  02:08           0        1.28      -0.037
  YS02001593           JUNCTION      0.00   318.59     0  02:08           0        1.28       0.017
  YS02001596           JUNCTION      0.00   317.93     0  02:25           0        1.28       0.003
  YS02001600           JUNCTION      0.00   318.04     0  02:09           0        1.28       0.025
  YS02001601           JUNCTION   1421.33  1739.08     0  02:14         2.3        3.58       0.028
  YS02001602           JUNCTION      0.00   510.08     0  02:39           0        2.23       0.026
  YS02001605           JUNCTION      0.00   510.31     0  02:39           0        2.14       0.031
  YS02001607           JUNCTION      0.00   510.29     0  02:39           0        2.14       0.097
  YS02001610           JUNCTION      0.00   778.36     0  02:15           0        2.38       0.106
  YS02001613           JUNCTION      0.00   513.06     0  02:02           0        1.98       0.094
  YS02001616           JUNCTION      0.00   512.13     0  02:02           0        1.98       0.027
  YS02001619           JUNCTION   1402.42  1402.42     0  02:15        2.66        4.39       0.005
  YS02001622           JUNCTION      0.00   975.49     0  02:32           0        4.15       0.006
  YS02001625           JUNCTION      0.00  1365.64     0  02:15           0        4.32       0.207
  YS02001629           JUNCTION      0.00   975.69     0  02:32           0        3.59       0.033
  YS02001633           JUNCTION   1069.75  1389.16     0  02:06        1.68        5.04       0.071
  YS02001641           JUNCTION      0.00  1386.49     0  02:06           0        4.82       0.060
  YS02001644           JUNCTION    956.90  1804.65     0  02:07        1.45        6.27       0.053
  YS02001647           JUNCTION      0.00  1811.27     0  02:07           0         5.9       0.008
  YS02001649           JUNCTION      0.00  2047.80     0  02:06           0        7.23       0.008
  YS02001652           JUNCTION      0.00   972.70     0  02:13           0        1.33      -0.073
  YS02001655           JUNCTION      0.15   972.91     0  02:13     0.00439        1.33       0.038
  YS02001658           JUNCTION      0.00   972.51     0  02:13           0        1.32      -0.012
  YS02001661           JUNCTION      0.00   970.92     0  02:13           0        1.32       0.013
  YS02001664           JUNCTION    938.51   938.51     0  02:13        1.32        1.32      -0.006
  YS02001745           JUNCTION    600.83   600.83     0  02:13       0.803       0.803       0.120
  YS02001748           JUNCTION      0.04   612.63     0  02:13     0.00128       0.803      -0.187
  YS02001751           JUNCTION      0.01   613.25     0  02:13    0.000313       0.808       0.066
  YS02001754           JUNCTION      0.26   613.05     0  02:13     0.00741       0.819      -0.095
  YS02001757           JUNCTION      0.00  3474.53     0  02:13           0        10.7       0.047
  YS02001759           JUNCTION    835.27  1429.07     0  02:13        1.11        2.64      -0.003
  YS02001762           JUNCTION      0.00   822.45     0  02:18           0        1.53       0.002
  YS02001765           JUNCTION      0.00   821.63     0  02:18           0        1.53       0.016
  YS02001767           JUNCTION      0.54   820.97     0  02:18      0.0152        1.53      -0.006
  YS02001770           JUNCTION   1164.90  1164.90     0  02:14        1.69        1.73      -0.009
  YS02001774           JUNCTION      0.00   587.39     0  02:13           0       0.233       0.451
  YS02001779           JUNCTION      0.01   587.53     0  02:13    0.000142       0.192      -0.166
  YS02001783           JUNCTION      0.00  1165.59     0  02:12           0        3.88       0.007
  YS02001784           JUNCTION      1.06  1166.53     0  02:12      0.0302        3.91       0.014
  YS02001786           JUNCTION      0.06  1167.02     0  02:12      0.0016        3.91       0.019
  YS02001788           JUNCTION      0.07  1167.50     0  02:12     0.00202        3.92       0.007
  YS02001790           JUNCTION      0.15  1179.16     0  02:12     0.00442        3.92       0.006
  YS02001791           JUNCTION      0.00  1297.02     0  02:11           0        3.92      -0.006
  YS02001793           JUNCTION      0.00  1252.15     0  02:09           0        3.92      -0.038
  YS02001882           JUNCTION      0.00    34.19     0  02:04           0      0.0125       5.786
  YS02001884           JUNCTION      0.00    71.17     0  02:04           0      0.0482       5.578
  YS02001887           JUNCTION    905.90   905.93     0  02:13        1.16        1.19       0.379
  YS02001890           JUNCTION      0.00   905.73     0  02:13           0        1.15       0.451
  YS02001895           JUNCTION      0.00   517.21     0  02:15           0        1.03       0.157
  YS02001898           JUNCTION      0.00   517.05     0  02:14           0        1.03       0.050
  YS02001901           JUNCTION      0.00   517.48     0  02:14           0        1.03       0.327
  YS02001904           JUNCTION      0.00   517.36     0  02:14           0        1.03       0.287
  YS02001907           JUNCTION      0.00  2095.83     0  02:13           0        3.57       0.512
  YS02001910           JUNCTION      0.00  1544.47     0  02:13           0        2.54       0.288
  YS02001915           JUNCTION   1033.64  1543.99     0  02:13        1.61        2.57       0.061
  YS02001918           JUNCTION      0.00   516.59     0  02:13           0       0.989       0.010
  YS02001920           JUNCTION      2.87   516.04     0  02:13      0.0818       0.974       0.124
  YS02001923           JUNCTION      0.04   512.43     0  02:13     0.00107       0.877      -0.040
  YS02001926           JUNCTION      0.05   512.19     0  02:13     0.00149       0.857       0.046
  YS02001929           JUNCTION    499.51   499.51     0  02:14       0.847       0.847      -0.091
  YS02006553           JUNCTION      0.00   799.84     0  02:29           0        2.24       0.537
  YS02006556           JUNCTION      0.00   799.87     0  02:28           0        2.25       0.369
  YS02006558           JUNCTION   1198.59  1198.59     0  02:13         1.7        3.92       0.087
  YS02006561           JUNCTION      0.00  1165.54     0  02:12           0        3.88       0.002
  YS02163301           JUNCTION      0.00   975.28     0  02:31           0        3.58       0.048
  YS02163601           JUNCTION      0.11  1389.13     0  02:06     0.00313        4.82       0.105
  YS02164001           JUNCTION      0.00  1388.43     0  02:06           0        4.81       0.052
  CC-1                 OUTFALL       0.00   683.00     0  00:00           0        4.81       0.000
  CC-2                 OUTFALL       0.00   683.00     0  00:00           0        4.81       0.000
  JK-1                 OUTFALL       0.00  1000.00     0  00:00           0         1.8       0.000
  JK-2                 OUTFALL       0.00  1000.00     0  00:00           0         1.8       0.000
  WSC                  OUTFALL       0.00   503.82     0  02:30           0        3.79       0.000
  CC-storage           STORAGE       0.00  3473.91     0  02:13           0        12.9      -0.321
  JK-storage           STORAGE       0.00  1374.94     0  02:12           0        4.07      -1.837
  
  
  **********************
  Node Surcharge Summary
  **********************
  
  Surcharging occurs when water rises above the top of the highest conduit.
  ---------------------------------------------------------------------
                                               Max. Height   Min. Depth
                                   Hours       Above Crown    Below Rim
  Node                 Type      Surcharged         Meters       Meters
  ---------------------------------------------------------------------
  WS02006109           JUNCTION        1.48          0.110        1.710
  WS02006112           JUNCTION        0.35          0.022        1.658
  WS02006228           JUNCTION        1.47          0.141        2.059
  WS02006229           JUNCTION        1.49          0.162        2.288
  WS02006231           JUNCTION        0.09          0.566        0.964
  WS02006232           JUNCTION        1.57          1.480        0.000
  WS02006234           JUNCTION        0.72          1.240        0.000
  WS02006235           JUNCTION        1.35          1.290        0.000
  WS02006238           JUNCTION        1.53          1.430        0.000
  WS02006239           JUNCTION        1.46          1.290        0.000
  WS02006240           JUNCTION        1.49          1.390        0.000
  WS02006242           JUNCTION        1.61          0.820        0.000
  WS02006243           JUNCTION        1.51          0.770        0.000
  WS02006245           JUNCTION        1.51          0.850        0.000
  WS02006247           JUNCTION        1.53          0.760        0.000
  WS02006248           JUNCTION        1.50          0.380        0.000
  WS02006249           JUNCTION        1.52          0.390        0.000
  WS02006251           JUNCTION        0.48          0.164        1.016
  WS02006252           JUNCTION        1.95          1.100        0.000
  WS02006256           JUNCTION        4.24          2.050        0.000
  YS02001580           JUNCTION        0.59          0.450        0.000
  YS02001583           JUNCTION        0.60          0.475        0.025
  YS02001586           JUNCTION        0.68          0.510        0.000
  YS02001590           JUNCTION        0.76          0.750        0.000
  YS02001593           JUNCTION        0.76          0.702        0.138
  YS02001596           JUNCTION        0.87          0.956        0.114
  YS02001600           JUNCTION        1.03          1.190        0.000
  YS02001601           JUNCTION        1.37          1.440        0.000
  YS02001602           JUNCTION        1.26          1.270        0.000
  YS02001605           JUNCTION        1.21          1.180        0.000
  YS02001607           JUNCTION        0.69          0.662        0.018
  YS02001610           JUNCTION        0.72          0.680        0.000
  YS02001613           JUNCTION        0.68          0.700        0.000
  YS02001616           JUNCTION        0.64          0.610        0.000
  YS02001619           JUNCTION        0.62          0.610        0.000
  YS02001622           JUNCTION        0.61          0.592        0.028
  YS02001625           JUNCTION        0.81          0.780        0.000
  YS02001629           JUNCTION        0.52          0.470        0.000
  YS02001633           JUNCTION        0.81          1.060        0.000
  YS02001641           JUNCTION        0.69          1.000        0.100
  YS02001644           JUNCTION        0.63          0.920        0.000
  YS02001647           JUNCTION        0.39          0.804        0.096
  YS02001649           JUNCTION        0.42          1.034        0.016
  YS02001652           JUNCTION        0.31          1.000        0.130
  YS02001655           JUNCTION        0.24          0.878        0.322
  YS02001658           JUNCTION        0.17          0.874        0.426
  YS02001661           JUNCTION        0.04          0.423        0.967
  YS02001748           JUNCTION        0.11          0.890        0.300
  YS02001751           JUNCTION        0.19          0.763        0.437
  YS02001754           JUNCTION        0.24          0.843        0.307
  YS02001757           JUNCTION        0.41          1.043        0.167
  YS02001759           JUNCTION        0.36          0.994        0.216
  YS02001762           JUNCTION        0.34          1.004        0.146
  YS02001765           JUNCTION        0.32          0.975        0.125
  YS02001767           JUNCTION        0.31          0.937        0.093
  YS02001770           JUNCTION        0.30          0.920        0.000
  YS02001774           JUNCTION        0.35          1.050        0.000
  YS02001779           JUNCTION        0.26          0.680        0.000
  YS02001783           JUNCTION        0.53          0.525        1.075
  YS02001784           JUNCTION        0.50          0.357        1.133
  YS02001786           JUNCTION        0.40          0.126        1.304
  YS02001882           JUNCTION        0.47          0.702        0.128
  YS02001884           JUNCTION        0.48          0.725        0.145
  YS02001887           JUNCTION        0.52          0.820        0.130
  YS02001890           JUNCTION        0.53          0.760        0.000
  YS02001895           JUNCTION        0.46          0.598        0.152
  YS02001898           JUNCTION        0.46          0.587        0.153
  YS02001901           JUNCTION        0.50          0.717        0.153
  YS02001904           JUNCTION        0.49          0.660        0.190
  YS02001907           JUNCTION        0.74          0.950        0.000
  YS02001910           JUNCTION        0.56          1.017        0.083
  YS02001915           JUNCTION        0.47          0.992        0.008
  YS02001918           JUNCTION        0.39          0.810        0.000
  YS02001920           JUNCTION        0.40          1.115        0.025
  YS02001923           JUNCTION        0.12          0.820        0.000
  YS02001926           JUNCTION        0.15          0.900        0.000
  YS02001929           JUNCTION        0.01          0.780        0.000
  YS02006553           JUNCTION        0.76          0.984        0.206
  YS02006556           JUNCTION        0.65          0.941        0.409
  YS02006558           JUNCTION        0.64          0.939        0.461
  YS02006561           JUNCTION        0.36          0.230        0.920
  YS02163301           JUNCTION        0.79          0.973        0.057
  YS02163601           JUNCTION        0.84          1.080        0.000
  YS02164001           JUNCTION        0.71          1.025        0.075
  
  
  *********************
  Node Flooding Summary
  *********************
  
  Flooding refers to all water that overflows a node, whether it ponds or not.
  --------------------------------------------------------------------------
                                                             Total   Maximum
                                 Maximum   Time of Max       Flood    Ponded
                        Hours       Rate    Occurrence      Volume     Depth
  Node                 Flooded       LPS   days hr:min    10^6 ltr    Meters
  --------------------------------------------------------------------------
  WS02006232              0.01     12.36      0  02:22       0.000     0.000
  WS02006234              0.01     91.84      0  02:43       0.000     0.000
  WS02006235              0.01     32.39      0  02:09       0.000     0.000
  WS02006238              0.01     23.04      0  02:09       0.000     0.000
  WS02006239              0.01      7.66      0  02:32       0.000     0.000
  WS02006240              0.01     19.75      0  02:32       0.000     0.000
  WS02006242              0.02     32.39      0  02:32       0.001     0.000
  WS02006243              0.01      9.16      0  02:27       0.000     0.000
  WS02006245              0.01      4.62      0  02:08       0.000     0.000
  WS02006247              0.01      4.29      0  02:08       0.000     0.000
  WS02006248              0.15     24.79      0  02:08       0.007     0.000
  WS02006249              0.19     20.31      0  02:22       0.004     0.000
  WS02006252              0.01    245.63      0  00:00       0.000     0.000
  WS02006256              0.51    303.79      0  02:29       0.312     0.000
  YS02001580              0.01     87.63      0  02:03       0.000     0.000
  YS02001586              0.48    469.10      0  02:15       0.375     0.000
  YS02001590              0.01      0.12      0  02:22       0.000     0.000
  YS02001600              0.01      0.99      0  02:03       0.000     0.000
  YS02001601              0.60   1341.02      0  02:14       1.350     0.000
  YS02001602              0.44     61.97      0  02:20       0.090     0.000
  YS02001605              0.01      0.13      0  02:09       0.000     0.000
  YS02001610              0.39    778.04      0  02:15       0.642     0.000
  YS02001613              0.01      0.42      0  02:08       0.000     0.000
  YS02001616              0.01      0.31      0  02:12       0.000     0.000
  YS02001619              0.01      1.83      0  02:11       0.000     0.000
  YS02001625              0.33   1365.42      0  02:16       0.941     0.000
  YS02001629              0.13    199.62      0  02:12       0.054     0.000
  YS02001633              0.01      0.91      0  02:08       0.000     0.000
  YS02001644              0.16   1055.39      0  02:13       0.355     0.000
  YS02001770              0.01     64.11      0  02:08       0.000     0.000
  YS02001774              0.01     20.64      0  02:08       0.000     0.000
  YS02001779              0.15    587.51      0  02:13       0.176     0.000
  YS02001890              0.18    390.51      0  02:13       0.119     0.000
  YS02001907              0.34   2095.59      0  02:13       1.319     0.000
  YS02001918              0.01    108.77      0  02:08       0.001     0.000
  YS02001923              0.01     53.01      0  02:07       0.000     0.000
  YS02001926              0.01    114.79      0  02:07       0.001     0.000
  YS02001929              0.01    200.87      0  02:07       0.001     0.000
  YS02163601              0.01      6.06      0  02:08       0.000     0.000
  
  
  **********************
  Storage Volume Summary
  **********************
  
  ------------------------------------------------------------------------------------------------
                         Average    Avg   Evap  Exfil     Maximum    Max    Time of Max    Maximum
                          Volume   Pcnt   Pcnt   Pcnt      Volume   Pcnt     Occurrence    Outflow
  Storage Unit           1000 m³   Full   Loss   Loss     1000 m³   Full    days hr:min        LPS
  ------------------------------------------------------------------------------------------------
  CC-storage               0.949   14.8    0.0    0.0       2.669   41.6       0  02:41    1783.53
  JK-storage               0.005    1.9    0.0    0.0       0.150   51.6       0  00:00    2300.00
  
  
  ***********************
  Outfall Loading Summary
  ***********************
  
  -----------------------------------------------------------
                         Flow       Avg       Max       Total
                         Freq      Flow      Flow      Volume
  Outfall Node           Pcnt       LPS       LPS    10^6 ltr
  -----------------------------------------------------------
  CC-1                  48.48    683.00    683.00       4.807
  CC-2                  48.48    683.00    683.00       4.807
  JK-1                  13.88   1000.00   1000.00       1.800
  JK-2                  13.88   1000.00   1000.00       1.800
  WSC                   99.93    202.61    503.82       3.795
  -----------------------------------------------------------
  System                44.93   3568.61   3869.81      17.010
  
  
  ********************
  Link Flow Summary
  ********************
  
  -----------------------------------------------------------------------------
                                 Maximum  Time of Max   Maximum    Max/    Max/
                                  |Flow|   Occurrence   |Veloc|    Full    Full
  Link                 Type          LPS  days hr:min     m/sec    Flow   Depth
  -----------------------------------------------------------------------------
  1                    CONDUIT    503.82     0  02:30      2.75    0.18    0.28
  WS02003060WS02003069 CONDUIT    502.32     0  02:27      1.60    0.20    0.32
  WS02003066WSF200     CONDUIT    485.61     0  02:28      2.78    0.08    0.21
  WS02003067WS02003066 CONDUIT    485.63     0  02:28      1.14    0.16    0.40
  WS02003069WS02003072 CONDUIT    502.21     0  02:28      1.33    0.24    0.37
  WS02003072WS02003073 CONDUIT    501.99     0  02:29      1.39    1.08    0.36
  WS02004401WS02004402 CONDUIT    488.87     0  02:23      1.22    0.59    0.84
  WS02004402WS02004403 CONDUIT    489.40     0  02:24      1.24    0.70    0.87
  WS02004403WS02004404 CONDUIT    504.82     0  02:28      1.24    0.36    0.92
  WS02004404WS02004405 CONDUIT    548.25     0  02:28      1.45    5.37    0.94
  WS02004405WS02004406 CONDUIT    491.32     0  02:24      1.46    0.97    0.93
  WS02004406WS02004407 CONDUIT    488.27     0  02:24      0.98    0.22    0.61
  WS02004407WS02004409 CONDUIT    487.83     0  02:24      1.59    0.17    0.46
  WS02004409WS02004410 CONDUIT    487.31     0  02:25      1.06    0.63    0.64
  WS02004410WS02004411 CONDUIT    486.99     0  02:25      1.13    0.67    0.65
  WS02004411WS02004412 CONDUIT    486.53     0  02:25      1.20    0.69    0.66
  WS02004412WS02004413 CONDUIT    486.16     0  02:25      1.22    0.33    0.75
  WS02004413WS02003067 CONDUIT    485.54     0  02:28      1.05    0.21    0.57
  WS02006109WS02006110 CONDUIT    499.90     0  02:22      1.00    0.96    0.99
  WS02006110WS02006113 CONDUIT    495.91     0  02:22      1.19    0.45    0.77
  WS02006111WS02006112 CONDUIT    495.07     0  02:23      1.95    0.24    0.67
  WS02006112WS02006115 CONDUIT    495.64     0  02:23      0.82    0.29    0.86
  WS02006113WS02006111 CONDUIT    510.51     0  02:22      2.39    0.61    0.44
  WS02006115WS02006116 CONDUIT    492.07     0  02:23      1.29    0.63    0.73
  WS02006116WS02004401 CONDUIT    490.02     0  02:23      1.21    0.68    0.82
  WS02006228WS02006109 CONDUIT    498.38     0  02:22      1.06    2.18    1.00
  WS02006229WS02006228 CONDUIT    498.10     0  02:22      1.12    1.65    1.00
  WS02006230WS02006229 CONDUIT    497.43     0  02:22      1.29   11.07    1.00
  WS02006231WS02006230 CONDUIT    543.43     0  02:22      1.45    8.24    0.96
  WS02006232WS02006231 CONDUIT    553.93     0  02:32      1.44    1.16    1.00
  WS02006234WS02006232 CONDUIT    547.59     0  02:32      1.42    1.11    1.00
  WS02006235WS02006234 CONDUIT    542.71     0  02:03      1.41    5.73    1.00
  WS02006238WS02006235 CONDUIT    441.27     0  02:09      1.74    0.99    1.00
  WS02006239WS02006238 CONDUIT    425.39     0  02:16      1.19    1.36    1.00
  WS02006240WS02006239 CONDUIT    422.30     0  02:43      1.24    1.33    1.00
  WS02006242WS02006240 CONDUIT    418.30     0  02:37      1.16    1.66    1.00
  WS02006243WS02006242 CONDUIT    418.36     0  02:37      1.44    0.89    1.00
  WS02006245WS02006243 CONDUIT    419.10     0  02:37      1.44    1.24    1.00
  WS02006247WS02006245 CONDUIT    418.72     0  02:36      1.43    3.32    1.00
  WS02006248WS02006247 CONDUIT    419.21     0  02:36      1.44    0.91    1.00
  WS02006249WS02006248 CONDUIT    419.88     0  02:38      1.39    2.30    1.00
  WS02006251WS02006249 CONDUIT    476.58     0  01:54      1.99    1.37    1.00
  WS02006252WS02006251 CONDUIT    402.08     0  03:55     18.79    1.48    1.00
  WS02006256WS02006235 CONDUIT    288.91     0  00:00      4.23    3.06    1.00
  WSF200WS02003060     CONDUIT    485.90     0  02:26      2.01    0.11    0.27
  YS02001580YS02001583 CONDUIT     95.87     0  02:03      0.62    0.37    1.00
  YS02001583YS02001586 CONDUIT    148.74     0  02:03      0.63    0.23    1.00
  YS02001586YS02001590 CONDUIT    318.57     0  02:08      1.27    0.56    1.00
  YS02001590YS02001593 CONDUIT    318.59     0  02:08      1.13    2.00    1.00
  YS02001593YS02001596 CONDUIT    317.93     0  02:25      1.77    0.50    1.00
  YS02001596YS02001600 CONDUIT    318.04     0  02:09      1.26    0.62    1.00
  YS02001600YS02001601 CONDUIT    318.17     0  02:22      1.13    0.55    1.00
  YS02001601YS02001602 CONDUIT    510.08     0  02:39      1.80    1.84    1.00
  YS02001602YS02001605 CONDUIT    510.31     0  02:39      1.80   10.80    1.00
  YS02001605YS02001607 CONDUIT    510.29     0  02:39      1.80    2.80    1.00
  YS02001607YS02001610 CONDUIT    512.31     0  02:02      0.65    0.49    1.00
  YS02001610YS02001613 CONDUIT    513.06     0  02:02      0.65    0.59    1.00
  YS02001613YS02001616 CONDUIT    512.13     0  02:02      0.65    0.44    1.00
  YS02001616YS02001619 CONDUIT    511.58     0  02:39      0.67    0.89    1.00
  YS02001619YS02001622 CONDUIT    975.49     0  02:32      1.24    1.44    1.00
  YS02001622YS02001625 CONDUIT    975.40     0  02:32      1.24    0.52    1.00
  YS02001625YS02001629 CONDUIT    975.69     0  02:32      1.24    0.46    1.00
  YS02001629YS02163301 CONDUIT    975.28     0  02:31      1.24    1.20    1.00
  YS02001633YS02163601 CONDUIT   1389.02     0  02:06      1.77    1.46    1.00
  YS02001641YS02001644 CONDUIT   1385.64     0  02:06      1.76    4.48    1.00
  YS02001644YS02001647 CONDUIT   1811.27     0  02:07      2.31    1.06    1.00
  YS02001647YS02001649 CONDUIT   1828.71     0  02:07      2.34    0.97    1.00
  YS02001649YS02001757 CONDUIT   2046.39     0  02:07      2.61    1.24    1.00
  YS02001652YS02001649 CONDUIT    972.80     0  02:13      1.24    0.48    1.00
  YS02001655YS02001652 CONDUIT    972.70     0  02:13      1.27    0.47    1.00
  YS02001658YS02001655 CONDUIT    972.76     0  02:13      1.88    0.41    1.00
  YS02001661YS02001658 CONDUIT    972.51     0  02:13      2.32    0.38    1.00
  YS02001664YS02001661 CONDUIT    970.92     0  02:13      2.33    0.30    0.80
  YS02001745YS02001748 CONDUIT    612.58     0  02:13      2.19    0.24    0.90
  YS02001748YS02001751 CONDUIT    613.24     0  02:13      1.71    0.31    1.00
  YS02001751YS02001754 CONDUIT    612.79     0  02:13      1.40    0.30    1.00
  YS02001754YS02001757 CONDUIT    613.35     0  02:13      0.78    0.25    1.00
  YS02001757CaochengTiaoxuchi CONDUIT   3473.91     0  02:13      6.39    1.50    0.94
  YS02001759YS02001757 CONDUIT   1428.72     0  02:13      1.82    1.02    1.00
  YS02001762YS02001759 CONDUIT    823.52     0  02:18      1.05    0.95    1.00
  YS02001765YS02001762 CONDUIT    822.45     0  02:18      1.05    0.77    1.00
  YS02001767YS02001765 CONDUIT    821.63     0  02:18      1.05    1.03    1.00
  YS02001770YS02001767 CONDUIT    820.44     0  02:18      1.04    3.25    1.00
  YS02001774YS02001770 CONDUIT    587.39     0  02:13      0.75    0.38    1.00
  YS02001779YS02001774 CONDUIT    587.52     0  02:13      0.75    0.30    1.00
  YS02001783YS02001784 CONDUIT   1165.47     0  02:12      2.32    1.61    1.00
  YS02001784YS02001785 CONDUIT   1166.97     0  02:12      2.32    2.72    1.00
  YS02001786YS02001788 CONDUIT   1167.43     0  02:12      2.48    2.25    0.89
  YS02001788YS02001790 CONDUIT   1179.00     0  02:12      2.72    0.87    0.84
  YS02001790YS02001791 CONDUIT   1297.02     0  02:11      3.43    1.41    0.71
  YS02001791YS02001793 CONDUIT   1252.15     0  02:09      6.77    0.54    0.42
  YS02001793JiankangQianchi CONDUIT   1374.94     0  02:12     15.20    0.11    0.50
  YS02001882YS02001884 CONDUIT     34.19     0  02:04      0.11    0.04    1.00
  YS02001884YS02001887 CONDUIT     71.17     0  02:04      0.09    0.09    1.00
  YS02001887YS02001890 CONDUIT    905.73     0  02:13      1.15    1.55    1.00
  YS02001890YS02001895 CONDUIT    517.21     0  02:15      0.66    0.24    1.00
  YS02001895YS02001898 CONDUIT    517.05     0  02:14      0.66    0.90    1.00
  YS02001898YS02001901 CONDUIT    517.48     0  02:14      0.66    0.33    1.00
  YS02001901YS02001904 CONDUIT    517.36     0  02:14      0.66    0.80    1.00
  YS02001904YS02001907 CONDUIT    517.34     0  02:14      0.66    0.18    1.00
  YS02001907YS02006553 CONDUIT    799.84     0  02:29      0.89    0.94    1.00
  YS02001910YS02001907 CONDUIT   1544.06     0  02:13      1.97    0.87    1.00
  YS02001915YS02001910 CONDUIT   1544.47     0  02:13      1.97    0.77    1.00
  YS02001918YS02001915 CONDUIT    516.36     0  02:13      0.66    0.28    1.00
  YS02001920YS02001918 CONDUIT    516.59     0  02:13      0.67    0.50    1.00
  YS02001923YS02001920 CONDUIT    513.17     0  02:13      0.69    0.23    1.00
  YS02001926YS02001923 CONDUIT    512.39     0  02:13      0.96    0.73    1.00
  YS02001929YS02001926 CONDUIT    512.13     0  02:13      1.11    0.24    1.00
  YS02006553YS02006556 CONDUIT    799.87     0  02:28      1.02    0.68    1.00
  YS02006556YS02006558 CONDUIT    801.92     0  02:29      1.02    0.63    1.00
  YS02006558YS02006561 CONDUIT   1165.54     0  02:12      4.12    2.58    1.00
  YS02006561YS02001783 CONDUIT   1165.59     0  02:12      2.32    0.60    1.00
  YS02163301YS02001633 CONDUIT    975.00     0  02:32      1.24    0.92    1.00
  YS02163601YS02164001 CONDUIT   1388.43     0  02:06      1.77    1.23    1.00
  YS02164001YS02001641 CONDUIT   1386.49     0  02:06      1.77    1.89    1.00
  CC-R1                PUMP       683.00     0  00:00              1.00
  CC-R2                PUMP       683.00     0  00:00              1.00
  CC-S1                PUMP       200.00     0  00:00              1.00
  CC-S2                PUMP       200.00     0  00:00              1.00
  JK-R1                PUMP      1000.00     0  00:00              1.00
  JK-R2                PUMP      1000.00     0  00:00              1.00
  JK-S                 PUMP       300.00     0  00:00              1.00
  
  
  ***************************
  Flow Classification Summary
  ***************************
  
  -------------------------------------------------------------------------------------
                      Adjusted    ---------- Fraction of Time in Flow Class ---------- 
                       /Actual         Up    Down  Sub   Sup   Up    Down  Norm  Inlet 
  Conduit               Length    Dry  Dry   Dry   Crit  Crit  Crit  Crit  Ltd   Ctrl  
  -------------------------------------------------------------------------------------
  1                       1.00   0.00  0.00  0.00  0.00  1.00  0.00  0.00  0.64  0.00
  WS02003060WS02003069    1.00   0.00  0.00  0.00  0.97  0.03  0.00  0.00  0.78  0.00
  WS02003066WSF200        1.00   0.05  0.00  0.00  0.00  0.95  0.00  0.00  0.92  0.00
  WS02003067WS02003066    1.00   0.05  0.00  0.00  0.95  0.00  0.00  0.00  0.00  0.00
  WS02003069WS02003072    1.00   0.00  0.00  0.00  0.99  0.01  0.00  0.00  0.80  0.00
  WS02003072WS02003073    1.00   0.00  0.00  0.00  0.00  0.00  0.00  1.00  0.00  0.00
  WS02004401WS02004402    1.00   0.02  0.00  0.00  0.98  0.00  0.00  0.00  0.00  0.00
  WS02004402WS02004403    1.00   0.02  0.00  0.00  0.98  0.00  0.00  0.00  0.00  0.00
  WS02004403WS02004404    1.00   0.00  0.03  0.00  0.97  0.00  0.00  0.00  0.00  0.00
  WS02004404WS02004405    1.00   0.00  0.00  0.00  1.00  0.00  0.00  0.00  0.01  0.00
  WS02004405WS02004406    1.00   0.00  0.00  0.00  1.00  0.00  0.00  0.00  0.00  0.00
  WS02004406WS02004407    1.00   0.00  0.03  0.00  0.97  0.00  0.00  0.00  0.00  0.00
  WS02004407WS02004409    1.00   0.03  0.00  0.00  0.95  0.01  0.00  0.00  0.96  0.00
  WS02004409WS02004410    1.00   0.03  0.00  0.00  0.96  0.00  0.00  0.00  0.00  0.00
  WS02004410WS02004411    1.00   0.04  0.00  0.00  0.96  0.00  0.00  0.00  0.00  0.00
  WS02004411WS02004412    1.00   0.04  0.00  0.00  0.96  0.00  0.00  0.00  0.00  0.00
  WS02004412WS02004413    1.00   0.04  0.00  0.00  0.96  0.00  0.00  0.00  0.00  0.00
  WS02004413WS02003067    1.00   0.04  0.01  0.00  0.00  0.00  0.95  0.00  0.00  0.00
  WS02006109WS02006110    1.00   0.00  0.01  0.00  0.98  0.00  0.01  0.00  0.00  0.00
  WS02006110WS02006113    1.00   0.01  0.01  0.00  0.98  0.00  0.00  0.00  0.00  0.00
  WS02006111WS02006112    1.00   0.02  0.00  0.00  0.98  0.00  0.00  0.00  0.98  0.00
  WS02006112WS02006115    1.00   0.02  0.00  0.00  0.97  0.00  0.00  0.00  0.00  0.00
  WS02006113WS02006111    1.00   0.02  0.00  0.00  0.00  0.98  0.00  0.00  0.10  0.00
  WS02006115WS02006116    1.00   0.02  0.00  0.00  0.97  0.00  0.00  0.01  0.00  0.00
  WS02006116WS02004401    1.00   0.02  0.00  0.00  0.98  0.00  0.00  0.00  0.00  0.00
  WS02006228WS02006109    1.00   0.00  0.00  0.00  1.00  0.00  0.00  0.00  0.00  0.00
  WS02006229WS02006228    1.00   0.00  0.00  0.00  0.99  0.00  0.00  0.01  0.00  0.00
  WS02006230WS02006229    1.00   0.00  0.00  0.00  0.99  0.00  0.00  0.01  0.02  0.00
  WS02006231WS02006230    1.00   0.00  0.00  0.00  0.21  0.00  0.79  0.00  0.00  0.00
  WS02006232WS02006231    1.00   0.00  0.00  0.00  0.99  0.00  0.01  0.00  0.00  0.00
  WS02006234WS02006232    1.00   0.00  0.00  0.00  1.00  0.00  0.00  0.00  0.21  0.00
  WS02006235WS02006234    1.00   0.00  0.00  0.00  0.53  0.00  0.47  0.00  0.00  0.00
  WS02006238WS02006235    1.00   0.00  0.00  0.00  1.00  0.00  0.00  0.00  0.01  0.00
  WS02006239WS02006238    1.00   0.00  0.00  0.00  1.00  0.00  0.00  0.00  0.39  0.00
  WS02006240WS02006239    1.00   0.00  0.00  0.00  0.47  0.00  0.00  0.53  0.04  0.00
  WS02006242WS02006240    1.00   0.00  0.00  0.00  0.99  0.00  0.01  0.00  0.00  0.00
  WS02006243WS02006242    1.00   0.00  0.00  0.00  0.99  0.00  0.00  0.01  0.70  0.00
  WS02006245WS02006243    1.00   0.00  0.00  0.00  0.45  0.00  0.00  0.55  0.01  0.00
  WS02006247WS02006245    1.00   0.00  0.00  0.00  0.99  0.00  0.00  0.01  0.00  0.00
  WS02006248WS02006247    1.00   0.00  0.00  0.00  0.99  0.00  0.00  0.01  0.18  0.00
  WS02006249WS02006248    1.00   0.00  0.00  0.00  0.30  0.00  0.70  0.00  0.00  0.00
  WS02006251WS02006249    1.00   0.00  0.00  0.00  1.00  0.00  0.00  0.00  0.71  0.00
  WS02006252WS02006251    1.00   0.00  0.75  0.00  0.06  0.00  0.19  0.00  0.06  0.00
  WS02006256WS02006235    1.00   0.00  0.00  0.00  0.99  0.01  0.00  0.00  0.01  0.00
  WSF200WS02003060        1.00   0.00  0.05  0.00  0.53  0.42  0.00  0.00  0.73  0.00
  YS02001580YS02001583    1.00   0.26  0.56  0.00  0.19  0.00  0.00  0.00  0.65  0.00
  YS02001583YS02001586    1.00   0.41  0.34  0.00  0.24  0.00  0.00  0.00  0.65  0.00
  YS02001586YS02001590    1.00   0.13  0.00  0.00  0.44  0.04  0.00  0.39  0.38  0.00
  YS02001590YS02001593    1.00   0.13  0.01  0.00  0.11  0.00  0.75  0.00  0.00  0.00
  YS02001593YS02001596    1.00   0.14  0.00  0.00  0.13  0.01  0.00  0.72  0.02  0.00
  YS02001596YS02001600    1.00   0.14  0.00  0.00  0.19  0.01  0.00  0.65  0.05  0.00
  YS02001600YS02001601    1.00   0.13  0.01  0.00  0.86  0.00  0.00  0.00  0.60  0.00
  YS02001601YS02001602    1.00   0.13  0.01  0.00  0.86  0.00  0.00  0.00  0.00  0.00
  YS02001602YS02001605    1.00   0.14  0.00  0.00  0.86  0.00  0.00  0.00  0.00  0.00
  YS02001605YS02001607    1.00   0.14  0.00  0.00  0.86  0.00  0.00  0.00  0.00  0.00
  YS02001607YS02001610    1.00   0.13  0.01  0.00  0.86  0.00  0.00  0.00  0.02  0.00
  YS02001610YS02001613    1.00   0.13  0.00  0.00  0.87  0.00  0.00  0.00  0.01  0.00
  YS02001613YS02001616    1.00   0.13  0.00  0.00  0.87  0.00  0.00  0.00  0.00  0.00
  YS02001616YS02001619    1.00   0.13  0.00  0.00  0.87  0.00  0.00  0.00  0.00  0.00
  YS02001619YS02001622    1.00   0.13  0.00  0.00  0.87  0.00  0.00  0.00  0.27  0.00
  YS02001622YS02001625    1.00   0.13  0.00  0.00  0.87  0.00  0.00  0.00  0.05  0.00
  YS02001625YS02001629    1.00   0.13  0.05  0.00  0.15  0.00  0.66  0.00  0.00  0.00
  YS02001629YS02163301    1.00   0.16  0.01  0.00  0.83  0.00  0.00  0.00  0.00  0.00
  YS02001633YS02163601    1.00   0.00  0.01  0.00  0.99  0.00  0.00  0.00  0.15  0.00
  YS02001641YS02001644    1.00   0.00  0.01  0.00  0.99  0.00  0.00  0.00  0.00  0.00
  YS02001644YS02001647    1.00   0.00  0.18  0.00  0.82  0.00  0.00  0.00  0.00  0.00
  YS02001647YS02001649    1.00   0.00  0.18  0.00  0.49  0.33  0.00  0.00  0.56  0.00
  YS02001649YS02001757    1.00   0.00  0.00  0.00  0.64  0.36  0.00  0.00  0.53  0.00
  YS02001652YS02001649    1.00   0.00  0.00  0.00  0.96  0.04  0.00  0.00  0.75  0.00
  YS02001655YS02001652    1.00   0.00  0.00  0.00  0.17  0.01  0.00  0.81  0.09  0.00
  YS02001658YS02001655    1.00   0.00  0.14  0.00  0.60  0.26  0.00  0.00  0.74  0.00
  YS02001661YS02001658    1.00   0.14  0.00  0.00  0.44  0.42  0.00  0.00  0.72  0.00
  YS02001664YS02001661    1.00   0.13  0.00  0.00  0.74  0.13  0.00  0.00  0.85  0.00
  YS02001745YS02001748    1.00   0.00  0.00  0.00  0.04  0.01  0.00  0.95  0.02  0.00
  YS02001748YS02001751    1.00   0.00  0.00  0.00  0.76  0.24  0.00  0.00  0.81  0.00
  YS02001751YS02001754    1.00   0.00  0.00  0.00  0.11  0.01  0.00  0.88  0.05  0.00
  YS02001754YS02001757    1.00   0.00  0.00  0.00  1.00  0.00  0.00  0.00  0.86  0.00
  YS02001757CaochengTiaoxuchi    1.00   0.00  0.00  0.00  0.71  0.29  0.00  0.00  0.76  0.00
  YS02001759YS02001757    1.00   0.00  0.00  0.00  1.00  0.00  0.00  0.00  0.62  0.00
  YS02001762YS02001759    1.00   0.00  0.00  0.00  1.00  0.00  0.00  0.00  0.04  0.00
  YS02001765YS02001762    1.00   0.00  0.00  0.00  1.00  0.00  0.00  0.00  0.74  0.00
  YS02001767YS02001765    1.00   0.00  0.00  0.00  1.00  0.00  0.00  0.00  0.00  0.00
  YS02001770YS02001767    1.00   0.00  0.00  0.00  1.00  0.00  0.00  0.00  0.00  0.00
  YS02001774YS02001770    1.00   0.00  0.13  0.00  0.71  0.00  0.16  0.00  0.03  0.00
  YS02001779YS02001774    1.00   0.00  0.00  0.00  1.00  0.00  0.00  0.00  0.80  0.00
  YS02001783YS02001784    1.00   0.00  0.19  0.00  0.81  0.00  0.00  0.00  0.55  0.00
  YS02001784YS02001785    1.00   0.00  0.00  0.00  1.00  0.00  0.00  0.00  0.17  0.00
  YS02001786YS02001788    1.00   0.00  0.00  0.00  0.79  0.21  0.00  0.00  0.00  0.00
  YS02001788YS02001790    1.00   0.00  0.00  0.00  0.22  0.78  0.00  0.00  0.81  0.00
  YS02001790YS02001791    1.00   0.00  0.00  0.00  0.01  0.99  0.00  0.00  0.15  0.00
  YS02001791YS02001793    1.00   0.00  0.00  0.00  0.00  1.00  0.00  0.00  0.01  0.00
  YS02001793JiankangQianchi    1.00   0.00  0.00  0.00  0.45  0.55  0.00  0.00  0.78  0.00
  YS02001882YS02001884    1.00   0.15  0.01  0.00  0.84  0.00  0.00  0.00  0.00  0.00
  YS02001884YS02001887    1.00   0.06  0.05  0.00  0.89  0.00  0.00  0.00  0.00  0.00
  YS02001887YS02001890    1.00   0.00  0.00  0.00  0.97  0.00  0.03  0.00  0.00  0.00
  YS02001890YS02001895    1.00   0.00  0.17  0.00  0.83  0.00  0.00  0.00  0.00  0.00
  YS02001895YS02001898    1.00   0.17  0.00  0.00  0.81  0.00  0.02  0.00  0.00  0.00
  YS02001898YS02001901    1.00   0.17  0.00  0.00  0.83  0.00  0.00  0.00  0.01  0.00
  YS02001901YS02001904    1.00   0.17  0.00  0.00  0.83  0.00  0.00  0.00  0.00  0.00
  YS02001904YS02001907    1.00   0.00  0.17  0.00  0.83  0.00  0.00  0.00  0.00  0.00
  YS02001907YS02006553    1.00   0.00  0.02  0.00  0.98  0.00  0.00  0.00  0.00  0.00
  YS02001910YS02001907    1.00   0.00  0.00  0.00  0.97  0.00  0.00  0.03  0.12  0.00
  YS02001915YS02001910    1.00   0.00  0.00  0.00  0.96  0.04  0.00  0.00  0.16  0.00
  YS02001918YS02001915    1.00   0.00  0.01  0.00  0.98  0.02  0.00  0.00  0.75  0.00
  YS02001920YS02001918    1.00   0.00  0.01  0.00  0.99  0.00  0.00  0.00  0.00  0.00
  YS02001923YS02001920    1.00   0.00  0.00  0.00  1.00  0.00  0.00  0.00  0.92  0.00
  YS02001926YS02001923    1.00   0.00  0.07  0.00  0.06  0.00  0.87  0.00  0.00  0.00
  YS02001929YS02001926    1.00   0.00  0.13  0.00  0.87  0.00  0.00  0.00  0.82  0.00
  YS02006553YS02006556    1.00   0.01  0.00  0.00  0.99  0.00  0.00  0.00  0.03  0.00
  YS02006556YS02006558    1.00   0.00  0.00  0.00  1.00  0.00  0.00  0.00  0.00  0.00
  YS02006558YS02006561    1.00   0.19  0.00  0.00  0.06  0.76  0.00  0.00  0.19  0.00
  YS02006561YS02001783    1.00   0.19  0.00  0.00  0.09  0.73  0.00  0.00  0.68  0.00
  YS02163301YS02001633    1.00   0.00  0.16  0.00  0.84  0.00  0.00  0.00  0.00  0.00
  YS02163601YS02164001    1.00   0.00  0.08  0.00  0.92  0.00  0.00  0.00  0.00  0.00
  YS02164001YS02001641    1.00   0.01  0.08  0.00  0.92  0.00  0.00  0.00  0.06  0.00
  
  
  *************************
  Conduit Surcharge Summary
  *************************
  
  ----------------------------------------------------------------------------
                                                           Hours        Hours 
                         --------- Hours Full --------   Above Full   Capacity
  Conduit                Both Ends  Upstream  Dnstream   Normal Flow   Limited
  ----------------------------------------------------------------------------
  WS02003072WS02003073        0.01      0.01      0.01      0.65         0.01
  WS02004404WS02004405        0.01      0.01      0.01      2.23         0.01
  WS02006109WS02006110        0.01      0.01      1.55      0.01         0.01
  WS02006110WS02006113        0.01      0.01      1.53      0.01         0.01
  WS02006111WS02006112        0.01      0.01      1.60      0.01         0.01
  WS02006112WS02006115        0.01      0.01      0.35      0.01         0.01
  WS02006228WS02006109        1.48      1.56      1.48      1.83         1.48
  WS02006229WS02006228        1.47      1.49      1.47      1.73         1.46
  WS02006230WS02006229        1.63      1.67      1.63      2.60         1.63
  WS02006231WS02006230        0.01      0.01      0.22      2.34         0.01
  WS02006232WS02006231        0.08      0.08      1.57      0.22         0.01
  WS02006234WS02006232        1.19      1.19      1.57      0.09         0.29
  WS02006235WS02006234        0.65      0.69      1.33      2.20         0.18
  WS02006238WS02006235        1.46      1.46      1.58      0.01         0.08
  WS02006239WS02006238        1.52      1.58      1.53      1.73         1.23
  WS02006240WS02006239        1.45      1.52      1.45      1.73         1.22
  WS02006242WS02006240        1.49      1.49      1.65      1.84         0.04
  WS02006243WS02006242        1.53      1.53      1.61      0.01         0.23
  WS02006245WS02006243        1.51      1.52      1.51      1.82         1.24
  WS02006247WS02006245        1.51      1.55      1.51      1.95         1.39
  WS02006248WS02006247        1.51      1.51      1.53      0.01         0.37
  WS02006249WS02006248        1.50      1.50      1.52      1.94         0.01
  WS02006251WS02006249        1.52      1.53      1.52      1.91         1.17
  WS02006252WS02006251        1.95      1.95      1.95      1.95         0.01
  WS02006256WS02006235        1.87      2.26      3.79      0.45         0.09
  YS02001580YS02001583        0.59      0.59      0.61      0.01         0.01
  YS02001583YS02001586        0.60      0.60      0.68      0.01         0.01
  YS02001586YS02001590        0.69      0.69      0.76      0.01         0.01
  YS02001590YS02001593        0.76      0.76      0.78      0.81         0.01
  YS02001593YS02001596        0.77      0.77      0.87      0.01         0.01
  YS02001596YS02001600        0.92      0.92      1.02      0.01         0.01
  YS02001600YS02001601        1.09      1.09      1.37      0.01         0.01
  YS02001601YS02001602        1.26      1.26      1.41      1.05         0.01
  YS02001602YS02001605        1.21      1.21      1.26      2.25         0.01
  YS02001605YS02001607        1.17      1.21      1.17      1.33         1.17
  YS02001607YS02001610        0.69      0.69      0.72      0.01         0.01
  YS02001610YS02001613        0.68      0.68      0.72      0.01         0.01
  YS02001613YS02001616        0.64      0.64      0.68      0.01         0.01
  YS02001616YS02001619        0.62      0.62      0.64      0.01         0.03
  YS02001619YS02001622        0.61      0.62      0.61      0.80         0.60
  YS02001622YS02001625        0.61      0.61      0.81      0.01         0.01
  YS02001625YS02001629        0.52      0.52      0.81      0.01         0.01
  YS02001629YS02163301        0.79      0.79      0.79      0.36         0.35
  YS02001633YS02163601        0.81      0.81      0.84      0.47         0.48
  YS02001641YS02001644        0.63      0.69      0.63      1.44         0.62
  YS02001644YS02001647        0.39      0.39      0.63      0.04         0.01
  YS02001647YS02001649        0.39      0.39      0.42      0.01         0.01
  YS02001649YS02001757        0.41      0.42      0.41      0.40         0.29
  YS02001652YS02001649        0.32      0.32      0.42      0.01         0.01
  YS02001655YS02001652        0.24      0.24      0.31      0.01         0.01
  YS02001658YS02001655        0.17      0.17      0.24      0.01         0.01
  YS02001661YS02001658        0.04      0.04      0.17      0.01         0.01
  YS02001664YS02001661        0.01      0.01      0.09      0.01         0.01
  YS02001745YS02001748        0.01      0.01      0.11      0.01         0.01
  YS02001748YS02001751        0.15      0.15      0.19      0.01         0.01
  YS02001751YS02001754        0.19      0.19      0.24      0.01         0.01
  YS02001754YS02001757        0.26      0.26      0.41      0.01         0.01
  YS02001757CaochengTiaoxuchi        0.01      0.41      0.01      0.51         0.01
  YS02001759YS02001757        0.36      0.36      0.41      0.02         0.05
  YS02001762YS02001759        0.34      0.34      0.36      0.01         0.03
  YS02001765YS02001762        0.32      0.32      0.34      0.01         0.01
  YS02001767YS02001765        0.31      0.31      0.32      0.01         0.04
  YS02001770YS02001767        0.31      0.32      0.31      0.59         0.31
  YS02001774YS02001770        0.30      0.30      0.35      0.01         0.01
  YS02001779YS02001774        0.26      0.26      0.35      0.01         0.01
  YS02001783YS02001784        0.50      0.53      0.50      0.67         0.50
  YS02001784YS02001785        0.40      0.50      0.40      0.90         0.40
  YS02001786YS02001788        0.01      0.40      0.01      0.78         0.01
  YS02001790YS02001791        0.01      0.01      0.01      0.49         0.01
  YS02001882YS02001884        0.47      0.47      0.48      0.01         0.01
  YS02001884YS02001887        0.51      0.51      0.52      0.01         0.01
  YS02001887YS02001890        0.53      0.53      0.54      0.13         0.01
  YS02001890YS02001895        0.46      0.46      0.56      0.01         0.01
  YS02001895YS02001898        0.46      0.46      0.46      0.01         0.01
  YS02001898YS02001901        0.47      0.47      0.50      0.01         0.01
  YS02001901YS02001904        0.49      0.49      0.50      0.01         0.01
  YS02001904YS02001907        0.49      0.49      0.76      0.01         0.01
  YS02001907YS02006553        0.90      0.90      0.97      0.01         0.01
  YS02001910YS02001907        0.56      0.56      0.74      0.01         0.01
  YS02001915YS02001910        0.47      0.47      0.56      0.01         0.01
  YS02001918YS02001915        0.39      0.39      0.47      0.01         0.01
  YS02001920YS02001918        0.39      0.39      0.40      0.01         0.01
  YS02001923YS02001920        0.35      0.35      0.40      0.01         0.01
  YS02001926YS02001923        0.12      0.12      0.15      0.01         0.01
  YS02001929YS02001926        0.01      0.01      0.15      0.01         0.01
  YS02006553YS02006556        0.65      0.65      0.76      0.01         0.01
  YS02006556YS02006558        0.70      0.70      0.77      0.01         0.01
  YS02006558YS02006561        0.42      0.64      0.42      0.85         0.42
  YS02006561YS02001783        0.36      0.36      0.53      0.01         0.01
  YS02163301YS02001633        0.79      0.79      0.84      0.01         0.02
  YS02163601YS02164001        0.71      0.71      0.84      0.30         0.01
  YS02164001YS02001641        0.69      0.71      0.69      0.72         0.53
  
  
  ***************
  Pumping Summary
  ***************
  
  ---------------------------------------------------------------------------------------------------------
                                                  Min       Avg       Max     Total     Power    % Time Off
                        Percent   Number of      Flow      Flow      Flow    Volume     Usage    Pump Curve
  Pump                 Utilized   Start-Ups       LPS       LPS       LPS  10^6 ltr     Kw-hr    Low   High
  ---------------------------------------------------------------------------------------------------------
  CC-R1                   24.69           4      0.00    683.00    683.00     4.807     78.95    0.0  100.0
  CC-R2                   24.69           4      0.00    683.00    683.00     4.807     78.95    0.0  100.0
  CC-S1                   24.69           4      0.00    200.00    200.00     1.408     10.75    0.0   31.2
  CC-S2                   24.69           4      0.00    200.00    200.00     1.408     10.75    0.0   31.2
  JK-R1                    6.42         265      0.00   1000.00   1000.00     1.830      4.93    0.0    0.0
  JK-R2                    6.42         265      0.00   1000.00   1000.00     1.830      4.93    0.0    0.0
  JK-S                     6.42         265      0.00    300.00    300.00     0.549     12.39    0.0    0.0
  

  Analysis begun on:  Tue Apr 22 10:14:58 2025
  Analysis ended on:  Tue Apr 22 10:15:00 2025
  Total elapsed time: 00:00:02