
  EPA STORM WATER MANAGEMENT MODEL - VERSION 5.2 (Build 5.2.4)
  PYSWMM TOOLKIT API - VERSION v1.0 (2023-11-27)
  ------------------------------------------------------------

  WARNING 04: minimum elevation drop used for Conduit WS02004404WS02004405
  WARNING 03: negative offset ignored for Link YS02001904YS02001907
  
  ****************
  Analysis Options
  ****************
  Flow Units ............... LPS
  Process Models:
    Rainfall/Runoff ........ YES
    RDII ................... NO
    Snowmelt ............... NO
    Groundwater ............ NO
    Flow Routing ........... YES
    Ponding Allowed ........ NO
    Water Quality .......... NO
  Infiltration Method ...... HORTON
  Flow Routing Method ...... DYNWAVE
  Surcharge Method ......... EXTRAN
  Starting Date ............ 08/28/2015 08:00:00
  Ending Date .............. 08/28/2015 16:00:00
  Antecedent Dry Days ...... 8.0
  Report Time Step ......... 00:01:00
  Wet Time Step ............ 00:01:00
  Dry Time Step ............ 00:01:00
  Routing Time Step ........ 30.00 sec
  Variable Time Step ....... YES
  Maximum Trials ........... 8
  Number of Threads ........ 4
  Head Tolerance ........... 0.001500 m
  
  
  **************************        Volume         Depth
  Runoff Quantity Continuity     hectare-m            mm
  **************************     ---------       -------
  Total Precipitation ......         2.710        81.689
  Evaporation Loss .........         0.000         0.000
  Infiltration Loss ........         0.103         3.094
  Surface Runoff ...........         2.575        77.617
  Final Storage ............         0.033         0.998
  Continuity Error (%) .....        -0.023
  
  
  **************************        Volume        Volume
  Flow Routing Continuity        hectare-m      10^6 ltr
  **************************     ---------     ---------
  Dry Weather Inflow .......         0.025         0.248
  Wet Weather Inflow .......         2.574        25.742
  Groundwater Inflow .......         0.000         0.000
  RDII Inflow ..............         0.000         0.000
  External Inflow ..........         0.083         0.825
  External Outflow .........         1.940        19.398
  Flooding Loss ............         0.926         9.261
  Evaporation Loss .........         0.000         0.000
  Exfiltration Loss ........         0.000         0.000
  Initial Stored Volume ....         0.243         2.431
  Final Stored Volume ......         0.075         0.747
  Continuity Error (%) .....        -0.548
  
  
  *************************
  Highest Continuity Errors
  *************************
  Node WS02006256 (-13.39%)
  Node YS02001884 (5.24%)
  Node YS02001583 (-4.83%)
  Node JK-storage (-1.35%)
  
  
  ***************************
  Time-Step Critical Elements
  ***************************
  Link YS02001793JiankangQianchi (21.96%)
  Link WS02004404WS02004405 (19.07%)
  Link WS02006238WS02006235 (18.57%)
  Link WS02003066WSF200 (11.73%)
  Link WS02006235WS02006234 (5.67%)
  
  
  ********************************
  Highest Flow Instability Indexes
  ********************************
  Link WS02006252WS02006251 (38)
  Link WS02006113WS02006111 (37)
  Link WS02006229WS02006228 (35)
  Link WS02006256WS02006235 (27)
  Link WS02006228WS02006109 (25)
  
  
  *********************************
  Most Frequent Nonconverging Nodes
  *********************************
  Node CC-1 (36.96%)
  Node CC-2 (36.96%)
  Node JK-1 (36.96%)
  Node JK-2 (36.96%)
  Node WSC (36.96%)
  
  
  *************************
  Routing Time Step Summary
  *************************
  Minimum Time Step           :     0.01 sec
  Average Time Step           :     2.97 sec
  Maximum Time Step           :     6.43 sec
  % of Time in Steady State   :     0.00
  Average Iterations per Step :     4.56
  % of Steps Not Converging   :    36.96
  Time Step Frequencies       :
     30.000 - 13.228 sec      :     0.00 %
     13.228 -  5.833 sec      :    17.02 %
      5.833 -  2.572 sec      :    28.24 %
      2.572 -  1.134 sec      :    40.07 %
      1.134 -  0.500 sec      :    14.68 %
  
  
  ***************************
  Subcatchment Runoff Summary
  ***************************
  
  ------------------------------------------------------------------------------------------------------------------------------
                            Total      Total      Total      Total     Imperv       Perv      Total       Total     Peak  Runoff
                           Precip      Runon       Evap      Infil     Runoff     Runoff     Runoff      Runoff   Runoff   Coeff
  Subcatchment                 mm         mm         mm         mm         mm         mm         mm    10^6 ltr      LPS
  ------------------------------------------------------------------------------------------------------------------------------
  sub60                     81.69       0.00       0.00       1.84      70.69       7.97      78.66        1.03   759.21   0.963
  sub61                     81.69       0.00       0.00       2.67      66.68      11.22      77.90        1.43  1056.54   0.954
  sub62                     81.69       0.00       0.00       1.22      73.87       5.31      79.18        2.17  1480.99   0.969
  sub63                     81.69       0.00       0.00       4.95      57.03      18.75      75.78        1.72  1203.95   0.928
  sub64                     81.69       0.00       0.00       2.50      68.23       9.76      77.99        1.87  1225.00   0.955
  sub65                     81.69       0.00       0.00       2.16      69.82       8.46      78.28        2.16  1373.96   0.958
  sub66                     81.69       0.00       0.00       6.18      56.92      17.51      74.43        3.47  1846.91   0.911
  sub67                     81.69       0.00       0.00       1.18      73.92       5.36      79.28        1.47  1134.01   0.970
  sub68                     81.69       0.00       0.00       2.21      69.07       9.23      78.30        2.15  1523.79   0.958
  sub69                     81.69       0.00       0.00       1.99      69.33      10.26      79.59        2.95  1826.33   0.974
  sub70                     81.69       0.00       0.00       6.73      53.75      21.04      74.79        2.16  1038.85   0.916
  sub71                     81.69       0.00       0.00       1.26      73.83       5.28      79.11        2.07  1323.00   0.968
  sub72                     81.69       0.00       0.00       1.12      74.57       4.60      79.16        1.09   646.61   0.969
  
  
  ******************
  Node Depth Summary
  ******************
  
  ---------------------------------------------------------------------------------
                                 Average  Maximum  Maximum  Time of Max    Reported
                                   Depth    Depth      HGL   Occurrence   Max Depth
  Node                 Type       Meters   Meters   Meters  days hr:min      Meters
  ---------------------------------------------------------------------------------
  WS02003060           JUNCTION     0.21     0.36     5.30     0  02:24        0.36
  WS02003066           JUNCTION     0.18     0.29     5.84     0  02:26        0.29
  WS02003067           JUNCTION     0.46     0.68     6.00     0  02:26        0.68
  WS02003069           JUNCTION     0.24     0.41     4.99     0  02:27        0.41
  WS02003072           JUNCTION     0.29     0.48     4.85     0  02:28        0.48
  WS02003073           JUNCTION     0.16     0.28     4.35     0  02:32        0.28
  WS02004401           JUNCTION     0.56     0.83     6.83     0  02:32        0.83
  WS02004402           JUNCTION     0.59     0.86     6.82     0  02:32        0.86
  WS02004403           JUNCTION     0.61     0.88     6.81     0  02:32        0.88
  WS02004404           JUNCTION     0.69     0.97     6.82     0  02:32        0.96
  WS02004405           JUNCTION     0.68     0.93     6.78     0  02:32        0.93
  WS02004406           JUNCTION     0.69     0.93     6.76     0  02:21        0.93
  WS02004407           JUNCTION     0.16     0.28     6.59     0  02:24        0.28
  WS02004409           JUNCTION     0.35     0.63     6.40     0  02:28        0.63
  WS02004410           JUNCTION     0.38     0.65     6.37     0  02:25        0.65
  WS02004411           JUNCTION     0.40     0.66     6.34     0  02:28        0.66
  WS02004412           JUNCTION     0.42     0.67     6.31     0  02:29        0.67
  WS02004413           JUNCTION     0.57     0.83     6.30     0  02:26        0.83
  WS02006109           JUNCTION     0.63     0.92     7.54     0  02:07        0.92
  WS02006110           JUNCTION     0.63     0.89     7.47     0  02:19        0.89
  WS02006111           JUNCTION     0.17     0.27     6.98     0  02:08        0.27
  WS02006112           JUNCTION     0.72     1.02     6.91     0  02:26        1.02
  WS02006113           JUNCTION     0.25     0.43     7.32     0  02:08        0.43
  WS02006115           JUNCTION     0.45     0.72     6.86     0  02:20        0.72
  WS02006116           JUNCTION     0.54     0.81     6.85     0  02:20        0.81
  WS02006228           JUNCTION     0.62     0.96     7.61     0  02:19        0.95
  WS02006229           JUNCTION     0.60     0.95     7.65     0  02:07        0.93
  WS02006230           JUNCTION     0.60     1.02     7.77     0  02:07        1.01
  WS02006231           JUNCTION     0.39     1.43     8.55     0  02:05        1.43
  WS02006232           JUNCTION     0.52     1.65     8.69     0  02:45        1.36
  WS02006234           JUNCTION     0.45     1.96     9.12     0  02:16        1.57
  WS02006235           JUNCTION     0.49     2.00     9.16     0  02:19        2.00
  WS02006238           JUNCTION     0.52     2.15     9.29     0  02:19        2.15
  WS02006239           JUNCTION     0.50     2.03     9.24     0  02:16        2.03
  WS02006240           JUNCTION     0.48     2.10     9.39     0  02:20        2.10
  WS02006242           JUNCTION     0.55     1.55     8.82     0  01:57        1.55
  WS02006243           JUNCTION     0.48     1.48     8.90     0  02:33        1.48
  WS02006245           JUNCTION     0.49     1.56     9.04     0  02:19        1.56
  WS02006247           JUNCTION     0.51     1.47     8.97     0  02:19        1.47
  WS02006248           JUNCTION     0.48     1.10     8.69     0  01:57        1.10
  WS02006249           JUNCTION     0.51     1.09     8.69     0  01:57        1.09
  WS02006251           JUNCTION     0.51     1.21     8.88     0  02:35        1.15
  WS02006252           JUNCTION     0.33     1.50     9.74     0  00:00        0.71
  WS02006256           JUNCTION     0.86     2.35     9.28     0  00:00        2.35
  WSF200               JUNCTION     0.15     0.28     5.51     0  02:26        0.28
  YS02001580           JUNCTION     0.18     1.05     9.59     0  01:59        0.77
  YS02001583           JUNCTION     0.21     1.14     9.64     0  02:19        1.14
  YS02001586           JUNCTION     0.33     1.13     9.30     0  01:59        1.13
  YS02001590           JUNCTION     0.45     1.40     9.26     0  01:59        1.37
  YS02001593           JUNCTION     0.39     1.34     9.20     0  02:19        1.29
  YS02001596           JUNCTION     0.52     1.70     9.11     0  02:19        1.66
  YS02001600           JUNCTION     0.62     1.87     9.00     0  01:59        1.87
  YS02001601           JUNCTION     0.81     2.06     8.90     0  01:58        2.06
  YS02001602           JUNCTION     0.70     1.87     8.77     0  02:01        1.87
  YS02001605           JUNCTION     0.64     1.78     8.68     0  02:08        1.78
  YS02001607           JUNCTION     0.59     1.68     8.53     0  02:19        1.68
  YS02001610           JUNCTION     0.63     1.68     8.48     0  02:03        1.68
  YS02001613           JUNCTION     0.60     1.70     8.54     0  02:19        1.67
  YS02001616           JUNCTION     0.53     1.61     8.52     0  02:08        1.61
  YS02001619           JUNCTION     0.51     1.61     8.54     0  02:08        1.61
  YS02001622           JUNCTION     0.50     1.62     8.52     0  02:19        1.62
  YS02001625           JUNCTION     0.73     1.78     8.38     0  02:03        1.78
  YS02001629           JUNCTION     0.64     1.85     8.40     0  02:05        1.85
  YS02001633           JUNCTION     0.71     2.08     8.53     0  02:08        2.08
  YS02001641           JUNCTION     0.66     2.10     8.54     0  02:19        2.10
  YS02001644           JUNCTION     0.64     1.92     8.35     0  02:07        1.92
  YS02001647           JUNCTION     0.42     1.80     8.41     0  02:08        1.80
  YS02001649           JUNCTION     0.47     2.05     8.44     0  02:08        2.05
  YS02001652           JUNCTION     0.35     1.91     8.50     0  02:08        1.91
  YS02001655           JUNCTION     0.26     1.81     8.66     0  02:05        1.68
  YS02001658           JUNCTION     0.19     1.58     8.72     0  02:07        1.46
  YS02001661           JUNCTION     0.20     1.28     8.69     0  02:12        1.28
  YS02001664           JUNCTION     0.10     0.78     8.71     0  02:12        0.78
  YS02001745           JUNCTION     0.11     0.91     8.43     0  02:12        0.91
  YS02001748           JUNCTION     0.17     1.67     8.75     0  02:07        1.32
  YS02001751           JUNCTION     0.21     1.78     8.66     0  02:08        1.78
  YS02001754           JUNCTION     0.29     2.08     8.69     0  02:08        2.08
  YS02001757           JUNCTION     0.47     2.18     8.45     0  02:08        2.18
  YS02001759           JUNCTION     0.41     2.11     8.48     0  02:08        2.11
  YS02001762           JUNCTION     0.40     2.09     8.49     0  02:19        2.02
  YS02001765           JUNCTION     0.38     2.07     8.52     0  02:19        1.97
  YS02001767           JUNCTION     0.38     2.01     8.50     0  02:19        1.94
  YS02001770           JUNCTION     0.39     1.95     8.44     0  02:11        1.95
  YS02001774           JUNCTION     0.45     2.05     8.47     0  02:19        2.00
  YS02001779           JUNCTION     0.28     1.68     8.37     0  02:04        1.68
  YS02001783           JUNCTION     0.37     1.30     7.44     0  02:19        1.24
  YS02001784           JUNCTION     0.37     1.35     7.41     0  02:19        1.35
  YS02001786           JUNCTION     0.31     0.92     6.95     0  02:19        0.88
  YS02001788           JUNCTION     0.22     0.63     6.60     0  02:10        0.62
  YS02001790           JUNCTION     0.26     0.73     6.37     0  02:12        0.72
  YS02001791           JUNCTION     0.16     0.44     5.91     0  02:13        0.44
  YS02001793           JUNCTION     0.09     0.24     5.08     0  02:24        0.24
  YS02001882           JUNCTION     0.46     1.83     8.55     0  02:19        1.83
  YS02001884           JUNCTION     0.54     1.84     8.45     0  02:19        1.80
  YS02001887           JUNCTION     0.62     1.90     8.44     0  02:08        1.90
  YS02001890           JUNCTION     0.64     1.81     8.32     0  02:03        1.81
  YS02001895           JUNCTION     0.43     1.75     8.50     0  02:19        1.75
  YS02001898           JUNCTION     0.43     1.63     8.36     0  02:19        1.57
  YS02001901           JUNCTION     0.54     1.73     8.34     0  02:19        1.70
  YS02001904           JUNCTION     0.52     1.68     8.31     0  02:19        1.68
  YS02001907           JUNCTION     0.82     1.96     8.25     0  02:03        1.96
  YS02001910           JUNCTION     0.64     2.01     8.52     0  02:12        2.01
  YS02001915           JUNCTION     0.47     2.00     8.72     0  02:12        2.00
  YS02001918           JUNCTION     0.30     1.81     8.88     0  02:04        1.70
  YS02001920           JUNCTION     0.38     2.14     9.15     0  02:04        1.79
  YS02001923           JUNCTION     0.24     2.03     9.29     0  02:04        1.55
  YS02001926           JUNCTION     0.25     1.90     9.35     0  02:04        1.40
  YS02001929           JUNCTION     0.16     1.78     9.47     0  02:04        1.17
  YS02006553           JUNCTION     0.82     2.03     8.31     0  02:19        2.02
  YS02006556           JUNCTION     0.79     2.07     8.38     0  02:19        2.05
  YS02006558           JUNCTION     0.83     2.12     8.39     0  02:08        2.12
  YS02006561           JUNCTION     0.24     1.00     7.66     0  02:19        0.91
  YS02163301           JUNCTION     0.66     1.95     8.47     0  02:08        1.95
  YS02163601           JUNCTION     0.73     2.08     8.48     0  02:19        2.05
  YS02164001           JUNCTION     0.65     2.02     8.48     0  02:19        1.94
  CC-1                 OUTFALL      0.00     0.00     0.00     0  00:00        0.00
  CC-2                 OUTFALL      0.00     0.00     0.00     0  00:00        0.00
  JK-1                 OUTFALL      0.00     0.00     0.00     0  00:00        0.00
  JK-2                 OUTFALL      0.00     0.00     0.00     0  00:00        0.00
  WSC                  OUTFALL      0.16     0.28     0.95     0  02:32        0.28
  CC-storage           STORAGE      0.41     1.18     6.68     0  02:46        1.18
  JK-storage           STORAGE      0.11     2.99     3.79     0  00:00        0.68
  
  
  *******************
  Node Inflow Summary
  *******************
  
  -------------------------------------------------------------------------------------------------
                                  Maximum  Maximum                  Lateral       Total        Flow
                                  Lateral    Total  Time of Max      Inflow      Inflow     Balance
                                   Inflow   Inflow   Occurrence      Volume      Volume       Error
  Node                 Type           LPS      LPS  days hr:min    10^6 ltr    10^6 ltr     Percent
  -------------------------------------------------------------------------------------------------
  WS02003060           JUNCTION     16.53   502.73     0  02:26       0.471         4.2       0.044
  WS02003066           JUNCTION      0.00   486.05     0  02:26           0        3.73       0.036
  WS02003067           JUNCTION      0.00   485.96     0  02:26           0        3.73       0.106
  WS02003069           JUNCTION      0.32   502.89     0  02:27     0.00912        4.21       0.084
  WS02003072           JUNCTION      0.00   502.50     0  02:27           0         4.2       0.155
  WS02003073           JUNCTION      1.82   504.16     0  02:32      0.0519        4.25       0.117
  WS02004401           JUNCTION      0.00   490.18     0  02:20           0        3.83       0.261
  WS02004402           JUNCTION      0.00   490.59     0  02:33           0        3.82       0.265
  WS02004403           JUNCTION      0.00   493.89     0  02:32           0        3.81       0.260
  WS02004404           JUNCTION      0.16   507.83     0  02:33     0.00462         3.8       0.174
  WS02004405           JUNCTION      0.04   554.51     0  02:34     0.00109         3.8       0.289
  WS02004406           JUNCTION      0.00   492.49     0  02:32           0        3.79       0.546
  WS02004407           JUNCTION      0.00   487.54     0  02:21           0        3.77       0.022
  WS02004409           JUNCTION      0.00   487.14     0  02:24           0        3.77       0.058
  WS02004410           JUNCTION      0.00   486.72     0  02:24           0        3.76       0.107
  WS02004411           JUNCTION      0.00   486.62     0  02:22           0        3.76       0.138
  WS02004412           JUNCTION      0.00   486.54     0  02:22           0        3.75       0.186
  WS02004413           JUNCTION      0.00   486.45     0  02:25           0        3.75       0.351
  WS02006109           JUNCTION      1.23   494.54     0  02:07      0.0351        3.87       0.185
  WS02006110           JUNCTION      0.00   494.76     0  02:07           0        3.87       0.164
  WS02006111           JUNCTION      0.00   507.93     0  02:08           0        3.86       0.026
  WS02006112           JUNCTION      0.00   494.30     0  02:08           0        3.86       0.522
  WS02006113           JUNCTION      0.00   493.72     0  02:19           0        3.86       0.035
  WS02006115           JUNCTION      0.00   495.08     0  02:08           0        3.84       0.177
  WS02006116           JUNCTION      0.00   489.27     0  02:20           0        3.83       0.068
  WS02006228           JUNCTION      0.00   493.80     0  02:07           0        3.84       0.057
  WS02006229           JUNCTION      0.00   492.72     0  02:07           0        3.85       0.140
  WS02006230           JUNCTION     10.28   537.53     0  02:07       0.293        3.85       0.135
  WS02006231           JUNCTION      0.00   553.19     0  02:35           0        3.56      -0.063
  WS02006232           JUNCTION      0.00   549.85     0  02:35           0        3.57       0.270
  WS02006234           JUNCTION      0.00   537.78     0  02:35           0        3.55      -0.416
  WS02006235           JUNCTION      0.00   540.09     0  02:14           0        3.61      -0.001
  WS02006238           JUNCTION      0.00   429.84     0  02:46           0        3.26      -0.141
  WS02006239           JUNCTION      0.00   426.37     0  02:00           0        3.21      -0.240
  WS02006240           JUNCTION      0.00   419.33     0  02:03           0        3.19      -0.125
  WS02006242           JUNCTION      0.00   419.60     0  02:03           0        3.19       0.004
  WS02006243           JUNCTION      0.00   420.01     0  02:03           0        3.19       0.068
  WS02006245           JUNCTION      0.00   419.75     0  02:03           0        3.21       0.450
  WS02006247           JUNCTION      0.00   419.95     0  02:51           0        3.21       0.002
  WS02006248           JUNCTION      0.00   420.98     0  02:00           0        3.22       0.100
  WS02006249           JUNCTION      0.00   487.90     0  01:48           0        3.24       0.408
  WS02006251           JUNCTION      0.08   402.11     0  02:40     0.00219        3.24      -0.056
  WS02006252           JUNCTION      0.00   400.00     0  00:00           0        3.23      -0.035
  WS02006256           JUNCTION      0.00   305.28     0  02:33           0       0.629     -11.811
  WSF200               JUNCTION      0.00   486.02     0  02:26           0        3.73       0.009
  YS02001580           JUNCTION      0.00    77.48     0  01:59           0     0.00416       2.490
  YS02001583           JUNCTION      0.00   132.71     0  01:58           0      0.0153      -4.607
  YS02001586           JUNCTION   1038.85  1038.85     0  02:15        2.16        2.17       0.051
  YS02001590           JUNCTION      0.00   324.88     0  02:19           0        1.48      -0.033
  YS02001593           JUNCTION      0.00   322.69     0  02:19           0        1.48       0.022
  YS02001596           JUNCTION      0.00   318.34     0  02:19           0        1.48       0.006
  YS02001600           JUNCTION      0.00   318.64     0  02:19           0        1.48       0.026
  YS02001601           JUNCTION   1826.33  2143.72     0  02:14        2.95        4.43       0.025
  YS02001602           JUNCTION      0.00   507.82     0  02:44           0        2.48       0.022
  YS02001605           JUNCTION      0.00   507.63     0  02:44           0        2.36       0.031
  YS02001607           JUNCTION      0.00   507.98     0  02:44           0        2.36       0.088
  YS02001610           JUNCTION      0.00   950.43     0  02:17           0        2.85       0.088
  YS02001613           JUNCTION      0.00   613.82     0  02:17           0        2.31       0.069
  YS02001616           JUNCTION      0.00   613.94     0  02:17           0        2.31       0.026
  YS02001619           JUNCTION   1846.91  1846.91     0  02:14        3.47        5.29       0.002
  YS02001622           JUNCTION      0.00  1053.73     0  02:17           0        4.76       0.003
  YS02001625           JUNCTION      0.00  1504.03     0  02:17           0        5.07       0.177
  YS02001629           JUNCTION      0.00   957.76     0  02:36           0        4.03       0.028
  YS02001633           JUNCTION   1374.16  1374.16     0  02:14        2.16        5.77       0.064
  YS02001641           JUNCTION      0.00  1372.19     0  02:03           0        5.35       0.055
  YS02001644           JUNCTION   1225.04  1893.96     0  02:14        1.87        7.22       0.048
  YS02001647           JUNCTION      0.00  1774.32     0  02:03           0        6.44       0.009
  YS02001649           JUNCTION      0.00  2013.41     0  02:03           0        8.16       0.007
  YS02001652           JUNCTION      0.00  1219.29     0  02:13           0        1.72      -0.066
  YS02001655           JUNCTION      0.15  1218.40     0  02:13     0.00439        1.72       0.028
  YS02001658           JUNCTION      0.00  1218.30     0  02:13           0        1.72      -0.010
  YS02001661           JUNCTION      0.00  1217.65     0  02:13           0        1.72       0.009
  YS02001664           JUNCTION   1203.95  1203.95     0  02:13        1.72        1.72      -0.005
  YS02001745           JUNCTION    759.22   759.22     0  02:13        1.03        1.03       0.098
  YS02001748           JUNCTION      0.04   770.25     0  02:13     0.00128        1.03      -0.155
  YS02001751           JUNCTION      0.01   770.77     0  02:13    0.000313        1.04       0.029
  YS02001754           JUNCTION      0.26   770.74     0  02:13     0.00741        1.05      -0.067
  YS02001757           JUNCTION      0.00  3583.55     0  02:13           0        12.4       0.053
  YS02001759           JUNCTION   1056.58  1509.37     0  02:13        1.43        3.22      -0.003
  YS02001762           JUNCTION      0.00   830.87     0  02:20           0        1.79       0.015
  YS02001765           JUNCTION      0.00   830.58     0  02:20           0        1.79       0.015
  YS02001767           JUNCTION      0.54   830.29     0  02:20      0.0152        1.79       0.022
  YS02001770           JUNCTION   1481.14  1481.14     0  02:13        2.17        2.21       0.001
  YS02001774           JUNCTION      0.00   849.26     0  02:14           0        0.43       0.326
  YS02001779           JUNCTION      0.01   849.75     0  02:15    0.000142       0.388      -0.109
  YS02001783           JUNCTION      0.00  1171.93     0  02:11           0        4.48       0.007
  YS02001784           JUNCTION      1.06  1173.15     0  02:11      0.0302        4.51       0.013
  YS02001786           JUNCTION      0.06  1173.32     0  02:11      0.0016        4.51       0.017
  YS02001788           JUNCTION      0.07  1174.06     0  02:11     0.00202        4.51       0.006
  YS02001790           JUNCTION      0.15  1187.37     0  02:10     0.00442        4.52       0.005
  YS02001791           JUNCTION      0.00  1294.36     0  02:13           0        4.52      -0.008
  YS02001793           JUNCTION      0.00  1253.11     0  02:10           0        4.52      -0.039
  YS02001882           JUNCTION      0.00    34.31     0  02:01           0       0.013       6.855
  YS02001884           JUNCTION      0.00    49.62     0  02:00           0      0.0487       5.530
  YS02001887           JUNCTION   1134.46  1134.48     0  02:13        1.49        1.52       0.302
  YS02001890           JUNCTION      0.00  1135.55     0  02:13           0        1.48       0.362
  YS02001895           JUNCTION      0.00   541.96     0  02:19           0        1.24       0.146
  YS02001898           JUNCTION      0.00   517.79     0  02:15           0        1.24       0.037
  YS02001901           JUNCTION      0.00   517.92     0  02:16           0        1.24       0.277
  YS02001904           JUNCTION      0.00   517.68     0  02:16           0        1.24       0.242
  YS02001907           JUNCTION      0.00  2830.88     0  02:14           0        4.56       0.402
  YS02001910           JUNCTION      0.00  1973.71     0  02:14           0        3.24       0.224
  YS02001915           JUNCTION   1323.02  1973.72     0  02:14        2.07        3.27       0.052
  YS02001918           JUNCTION      0.00   651.84     0  02:14           0        1.22       0.017
  YS02001920           JUNCTION      2.87   651.88     0  02:14      0.0818        1.21       0.085
  YS02001923           JUNCTION      0.04   647.51     0  02:14     0.00107        1.11      -0.021
  YS02001926           JUNCTION      0.05   647.59     0  02:14     0.00149         1.1       0.024
  YS02001929           JUNCTION    646.61   646.61     0  02:14        1.09        1.09      -0.051
  YS02006553           JUNCTION      0.00   802.29     0  02:31           0        2.51       0.480
  YS02006556           JUNCTION      0.00   802.45     0  02:31           0        2.52       0.335
  YS02006558           JUNCTION   1524.67  1524.67     0  02:13        2.18        4.59       0.078
  YS02006561           JUNCTION      0.00  1172.53     0  02:11           0        4.48      -0.001
  YS02163301           JUNCTION      0.00   959.65     0  02:35           0        4.02       0.044
  YS02163601           JUNCTION      0.11  1372.33     0  02:03     0.00313        5.35       0.098
  YS02164001           JUNCTION      0.00  1372.56     0  02:03           0        5.35       0.053
  CC-1                 OUTFALL       0.00   683.00     0  00:00           0        5.52       0.000
  CC-2                 OUTFALL       0.00   683.00     0  00:00           0        5.52       0.000
  JK-1                 OUTFALL       0.00  1000.00     0  00:00           0        2.06       0.000
  JK-2                 OUTFALL       0.00  1000.00     0  00:00           0        2.06       0.000
  WSC                  OUTFALL       0.00   504.11     0  02:32           0        4.24       0.000
  CC-storage           STORAGE       0.00  3583.36     0  02:13           0        14.6      -0.322
  JK-storage           STORAGE       0.00  1355.91     0  02:10           0        4.67      -1.332
  
  
  **********************
  Node Surcharge Summary
  **********************
  
  Surcharging occurs when water rises above the top of the highest conduit.
  ---------------------------------------------------------------------
                                               Max. Height   Min. Depth
                                   Hours       Above Crown    Below Rim
  Node                 Type      Surcharged         Meters       Meters
  ---------------------------------------------------------------------
  WS02006109           JUNCTION        1.76          0.104        1.716
  WS02006112           JUNCTION        0.51          0.025        1.655
  WS02006228           JUNCTION        1.75          0.127        2.073
  WS02006229           JUNCTION        1.78          0.152        2.298
  WS02006231           JUNCTION        0.12          0.715        0.815
  WS02006232           JUNCTION        1.86          0.952        0.528
  WS02006234           JUNCTION        0.87          1.240        0.000
  WS02006235           JUNCTION        1.60          1.290        0.000
  WS02006238           JUNCTION        1.81          1.430        0.000
  WS02006239           JUNCTION        1.73          1.290        0.000
  WS02006240           JUNCTION        1.78          1.390        0.000
  WS02006242           JUNCTION        1.90          0.820        0.000
  WS02006243           JUNCTION        1.80          0.770        0.000
  WS02006245           JUNCTION        1.80          0.850        0.000
  WS02006247           JUNCTION        1.83          0.760        0.000
  WS02006248           JUNCTION        1.79          0.380        0.000
  WS02006249           JUNCTION        1.81          0.390        0.000
  WS02006251           JUNCTION        0.58          0.182        0.998
  WS02006252           JUNCTION        2.24          1.100        0.000
  WS02006256           JUNCTION        4.56          2.050        0.000
  YS02001580           JUNCTION        0.74          0.450        0.000
  YS02001583           JUNCTION        0.75          0.500        0.000
  YS02001586           JUNCTION        0.84          0.510        0.000
  YS02001590           JUNCTION        0.93          0.750        0.000
  YS02001593           JUNCTION        0.93          0.715        0.125
  YS02001596           JUNCTION        1.05          0.965        0.105
  YS02001600           JUNCTION        1.23          1.190        0.000
  YS02001601           JUNCTION        1.54          1.440        0.000
  YS02001602           JUNCTION        1.44          1.270        0.000
  YS02001605           JUNCTION        1.38          1.180        0.000
  YS02001607           JUNCTION        0.85          0.680        0.000
  YS02001610           JUNCTION        0.89          0.680        0.000
  YS02001613           JUNCTION        0.84          0.700        0.000
  YS02001616           JUNCTION        0.80          0.610        0.000
  YS02001619           JUNCTION        0.78          0.610        0.000
  YS02001622           JUNCTION        0.77          0.620        0.000
  YS02001625           JUNCTION        0.99          0.780        0.000
  YS02001629           JUNCTION        0.69          0.470        0.000
  YS02001633           JUNCTION        0.99          1.060        0.000
  YS02001641           JUNCTION        0.86          1.100        0.000
  YS02001644           JUNCTION        0.80          0.920        0.000
  YS02001647           JUNCTION        0.54          0.797        0.103
  YS02001649           JUNCTION        0.60          1.050        0.000
  YS02001652           JUNCTION        0.43          0.875        0.255
  YS02001655           JUNCTION        0.34          0.807        0.393
  YS02001658           JUNCTION        0.25          0.578        0.722
  YS02001661           JUNCTION        0.10          0.211        1.179
  YS02001748           JUNCTION        0.17          0.591        0.599
  YS02001751           JUNCTION        0.28          0.784        0.416
  YS02001754           JUNCTION        0.34          1.027        0.123
  YS02001757           JUNCTION        0.59          1.184        0.026
  YS02001759           JUNCTION        0.52          1.112        0.098
  YS02001762           JUNCTION        0.49          1.090        0.060
  YS02001765           JUNCTION        0.46          1.069        0.031
  YS02001767           JUNCTION        0.44          1.014        0.016
  YS02001770           JUNCTION        0.42          0.920        0.000
  YS02001774           JUNCTION        0.49          1.049        0.001
  YS02001779           JUNCTION        0.36          0.680        0.000
  YS02001783           JUNCTION        0.65          0.504        1.096
  YS02001784           JUNCTION        0.62          0.547        0.943
  YS02001786           JUNCTION        0.50          0.124        1.306
  YS02001882           JUNCTION        0.59          0.830        0.000
  YS02001884           JUNCTION        0.60          0.776        0.094
  YS02001887           JUNCTION        0.64          0.849        0.101
  YS02001890           JUNCTION        0.65          0.760        0.000
  YS02001895           JUNCTION        0.58          0.750        0.000
  YS02001898           JUNCTION        0.57          0.599        0.141
  YS02001901           JUNCTION        0.62          0.726        0.144
  YS02001904           JUNCTION        0.61          0.680        0.170
  YS02001907           JUNCTION        0.89          0.950        0.000
  YS02001910           JUNCTION        0.68          1.011        0.089
  YS02001915           JUNCTION        0.59          1.000        0.000
  YS02001918           JUNCTION        0.49          0.810        0.000
  YS02001920           JUNCTION        0.51          1.140        0.000
  YS02001923           JUNCTION        0.19          0.820        0.000
  YS02001926           JUNCTION        0.24          0.900        0.000
  YS02001929           JUNCTION        0.09          0.780        0.000
  YS02006553           JUNCTION        0.91          1.030        0.160
  YS02006556           JUNCTION        0.78          1.025        0.325
  YS02006558           JUNCTION        0.77          1.022        0.378
  YS02006561           JUNCTION        0.46          0.199        0.951
  YS02163301           JUNCTION        0.97          0.953        0.077
  YS02163601           JUNCTION        1.02          1.080        0.000
  YS02164001           JUNCTION        0.88          1.021        0.079
  
  
  *********************
  Node Flooding Summary
  *********************
  
  Flooding refers to all water that overflows a node, whether it ponds or not.
  --------------------------------------------------------------------------
                                                             Total   Maximum
                                 Maximum   Time of Max       Flood    Ponded
                        Hours       Rate    Occurrence      Volume     Depth
  Node                 Flooded       LPS   days hr:min    10^6 ltr    Meters
  --------------------------------------------------------------------------
  WS02006234              0.01     54.59      0  02:35       0.000     0.000
  WS02006235              0.01     18.07      0  02:45       0.000     0.000
  WS02006238              0.01     16.00      0  02:19       0.000     0.000
  WS02006239              0.01     12.36      0  02:35       0.000     0.000
  WS02006240              0.01     40.14      0  02:20       0.000     0.000
  WS02006242              0.02     31.23      0  02:16       0.001     0.000
  WS02006243              0.01      4.42      0  02:35       0.000     0.000
  WS02006245              0.01      1.07      0  02:35       0.000     0.000
  WS02006247              0.01      0.84      0  02:35       0.000     0.000
  WS02006248              0.18     27.54      0  02:22       0.008     0.000
  WS02006249              0.24     23.60      0  02:19       0.005     0.000
  WS02006252              0.01    245.63      0  00:00       0.000     0.000
  WS02006256              0.58    293.19      0  00:00       0.361     0.000
  YS02001580              0.01     48.68      0  01:59       0.000     0.000
  YS02001583              0.01      0.30      0  02:19       0.000     0.000
  YS02001586              0.62    721.49      0  02:15       0.676     0.000
  YS02001590              0.01      7.56      0  01:59       0.000     0.000
  YS02001600              0.01      3.53      0  02:19       0.000     0.000
  YS02001601              0.76   1745.72      0  02:14       1.944     0.000
  YS02001602              0.57     62.01      0  02:16       0.119     0.000
  YS02001605              0.01      5.85      0  02:19       0.000     0.000
  YS02001607              0.01      0.78      0  02:19       0.000     0.000
  YS02001610              0.52    950.17      0  02:17       1.024     0.000
  YS02001613              0.01     11.85      0  02:19       0.000     0.000
  YS02001616              0.08     18.48      0  02:19       0.000     0.000
  YS02001619              0.11    197.09      0  02:14       0.045     0.000
  YS02001622              0.01      0.25      0  02:19       0.000     0.000
  YS02001625              0.44   1503.97      0  02:17       1.448     0.000
  YS02001629              0.22    269.01      0  02:14       0.107     0.000
  YS02001633              0.01      0.08      0  02:08       0.000     0.000
  YS02001641              0.01      0.71      0  02:19       0.000     0.000
  YS02001644              0.24   1788.39      0  02:13       0.774     0.000
  YS02001649              0.01      0.97      0  02:08       0.000     0.000
  YS02001770              0.06    203.74      0  02:13       0.025     0.000
  YS02001779              0.22    849.50      0  02:15       0.371     0.000
  YS02001882              0.01      0.50      0  02:19       0.000     0.000
  YS02001890              0.26    618.85      0  02:13       0.236     0.000
  YS02001895              0.01      0.46      0  02:19       0.000     0.000
  YS02001907              0.44   2830.76      0  02:14       2.116     0.000
  YS02001915              0.01      1.20      0  02:13       0.000     0.000
  YS02001918              0.01    103.64      0  02:04       0.001     0.000
  YS02001920              0.01     27.35      0  02:04       0.000     0.000
  YS02001923              0.01    153.85      0  02:04       0.000     0.000
  YS02001926              0.01     29.89      0  02:04       0.000     0.000
  YS02001929              0.01    223.39      0  02:04       0.000     0.000
  YS02163601              0.01     13.91      0  02:19       0.000     0.000
  
  
  **********************
  Storage Volume Summary
  **********************
  
  ------------------------------------------------------------------------------------------------
                         Average    Avg   Evap  Exfil     Maximum    Max    Time of Max    Maximum
                          Volume   Pcnt   Pcnt   Pcnt      Volume   Pcnt     Occurrence    Outflow
  Storage Unit           1000 m³   Full   Loss   Loss     1000 m³   Full    days hr:min        LPS
  ------------------------------------------------------------------------------------------------
  CC-storage               1.143   17.8    0.0    0.0       3.285   51.3       0  02:46    1783.53
  JK-storage               0.006    1.9    0.0    0.0       0.150   51.6       0  00:00    2300.00
  
  
  ***********************
  Outfall Loading Summary
  ***********************
  
  -----------------------------------------------------------
                         Flow       Avg       Max       Total
                         Freq      Flow      Flow      Volume
  Outfall Node           Pcnt       LPS       LPS    10^6 ltr
  -----------------------------------------------------------
  CC-1                  52.51    683.00    683.00       5.520
  CC-2                  52.51    683.00    683.00       5.520
  JK-1                  15.50   1000.00   1000.00       2.057
  JK-2                  15.50   1000.00   1000.00       2.057
  WSC                   99.94    223.73    504.11       4.244
  -----------------------------------------------------------
  System                47.19   3589.73   3870.11      19.398
  
  
  ********************
  Link Flow Summary
  ********************
  
  -----------------------------------------------------------------------------
                                 Maximum  Time of Max   Maximum    Max/    Max/
                                  |Flow|   Occurrence   |Veloc|    Full    Full
  Link                 Type          LPS  days hr:min     m/sec    Flow   Depth
  -----------------------------------------------------------------------------
  1                    CONDUIT    504.11     0  02:32      2.75    0.18    0.28
  WS02003060WS02003069 CONDUIT    502.57     0  02:27      1.60    0.20    0.32
  WS02003066WSF200     CONDUIT    486.02     0  02:26      2.78    0.08    0.21
  WS02003067WS02003066 CONDUIT    486.05     0  02:26      1.14    0.16    0.40
  WS02003069WS02003072 CONDUIT    502.50     0  02:27      1.33    0.24    0.37
  WS02003072WS02003073 CONDUIT    502.33     0  02:32      1.39    1.08    0.36
  WS02004401WS02004402 CONDUIT    490.59     0  02:33      1.22    0.59    0.84
  WS02004402WS02004403 CONDUIT    493.89     0  02:32      1.24    0.71    0.87
  WS02004403WS02004404 CONDUIT    507.67     0  02:33      1.24    0.37    0.92
  WS02004404WS02004405 CONDUIT    554.47     0  02:34      1.45    5.43    0.94
  WS02004405WS02004406 CONDUIT    492.49     0  02:32      1.46    0.97    0.93
  WS02004406WS02004407 CONDUIT    487.54     0  02:21      0.98    0.22    0.60
  WS02004407WS02004409 CONDUIT    487.14     0  02:24      1.59    0.17    0.46
  WS02004409WS02004410 CONDUIT    486.72     0  02:24      1.06    0.63    0.64
  WS02004410WS02004411 CONDUIT    486.62     0  02:22      1.13    0.66    0.65
  WS02004411WS02004412 CONDUIT    486.54     0  02:22      1.20    0.69    0.66
  WS02004412WS02004413 CONDUIT    486.45     0  02:25      1.22    0.33    0.75
  WS02004413WS02003067 CONDUIT    485.96     0  02:26      1.05    0.21    0.57
  WS02006109WS02006110 CONDUIT    494.76     0  02:07      0.99    0.95    0.99
  WS02006110WS02006113 CONDUIT    493.72     0  02:19      1.19    0.45    0.77
  WS02006111WS02006112 CONDUIT    494.30     0  02:08      1.95    0.24    0.67
  WS02006112WS02006115 CONDUIT    495.08     0  02:08      0.82    0.29    0.86
  WS02006113WS02006111 CONDUIT    507.93     0  02:08      2.38    0.61    0.44
  WS02006115WS02006116 CONDUIT    489.27     0  02:20      1.29    0.63    0.74
  WS02006116WS02004401 CONDUIT    490.18     0  02:20      1.21    0.68    0.82
  WS02006228WS02006109 CONDUIT    493.31     0  02:07      1.06    2.16    1.00
  WS02006229WS02006228 CONDUIT    493.80     0  02:07      1.12    1.64    1.00
  WS02006230WS02006229 CONDUIT    492.72     0  02:07      1.28   10.97    1.00
  WS02006231WS02006230 CONDUIT    527.25     0  02:07      1.42    8.00    0.96
  WS02006232WS02006231 CONDUIT    553.19     0  02:35      1.44    1.16    1.00
  WS02006234WS02006232 CONDUIT    549.85     0  02:35      1.43    1.11    1.00
  WS02006235WS02006234 CONDUIT    537.78     0  02:35      1.40    5.67    1.00
  WS02006238WS02006235 CONDUIT    432.83     0  02:14      1.45    0.97    1.00
  WS02006239WS02006238 CONDUIT    429.84     0  02:46      1.13    1.38    1.00
  WS02006240WS02006239 CONDUIT    426.37     0  02:00      1.24    1.34    1.00
  WS02006242WS02006240 CONDUIT    419.33     0  02:03      1.16    1.67    1.00
  WS02006243WS02006242 CONDUIT    419.60     0  02:03      1.43    0.90    1.00
  WS02006245WS02006243 CONDUIT    420.01     0  02:03      1.45    1.24    1.00
  WS02006247WS02006245 CONDUIT    419.75     0  02:03      1.43    3.33    1.00
  WS02006248WS02006247 CONDUIT    419.95     0  02:51      1.45    0.91    1.00
  WS02006249WS02006248 CONDUIT    420.98     0  02:00      1.39    2.31    1.00
  WS02006251WS02006249 CONDUIT    487.90     0  01:48      1.99    1.41    1.00
  WS02006252WS02006251 CONDUIT    402.04     0  02:40      5.28    1.48    1.00
  WS02006256WS02006235 CONDUIT    288.91     0  00:00      4.23    3.06    1.00
  WSF200WS02003060     CONDUIT    486.20     0  02:26      2.01    0.11    0.27
  YS02001580YS02001583 CONDUIT     77.48     0  01:59      0.56    0.30    1.00
  YS02001583YS02001586 CONDUIT    132.71     0  01:58      0.54    0.20    1.00
  YS02001586YS02001590 CONDUIT    324.88     0  02:19      1.28    0.57    1.00
  YS02001590YS02001593 CONDUIT    322.69     0  02:19      1.14    2.03    1.00
  YS02001593YS02001596 CONDUIT    318.34     0  02:19      1.78    0.50    1.00
  YS02001596YS02001600 CONDUIT    318.64     0  02:19      1.28    0.62    1.00
  YS02001600YS02001601 CONDUIT    318.08     0  02:15      1.12    0.55    1.00
  YS02001601YS02001602 CONDUIT    507.82     0  02:44      1.80    1.83    1.00
  YS02001602YS02001605 CONDUIT    507.63     0  02:44      1.80   10.74    1.00
  YS02001605YS02001607 CONDUIT    507.98     0  02:44      1.80    2.79    1.00
  YS02001607YS02001610 CONDUIT    508.60     0  02:44      0.65    0.48    1.00
  YS02001610YS02001613 CONDUIT    614.21     0  02:17      0.78    0.71    1.00
  YS02001613YS02001616 CONDUIT    613.82     0  02:17      0.78    0.53    1.00
  YS02001616YS02001619 CONDUIT    613.94     0  02:17      0.78    1.07    1.00
  YS02001619YS02001622 CONDUIT   1053.73     0  02:17      1.34    1.55    1.00
  YS02001622YS02001625 CONDUIT   1053.58     0  02:16      1.34    0.56    1.00
  YS02001625YS02001629 CONDUIT    957.76     0  02:36      1.22    0.46    1.00
  YS02001629YS02163301 CONDUIT    959.65     0  02:35      1.22    1.18    1.00
  YS02001633YS02163601 CONDUIT   1372.22     0  02:03      1.75    1.44    1.00
  YS02001641YS02001644 CONDUIT   1372.40     0  02:03      1.75    4.44    1.00
  YS02001644YS02001647 CONDUIT   1774.32     0  02:03      2.26    1.04    1.00
  YS02001647YS02001649 CONDUIT   1778.14     0  02:03      2.31    0.94    1.00
  YS02001649YS02001757 CONDUIT   2011.58     0  02:04      2.57    1.22    1.00
  YS02001652YS02001649 CONDUIT   1218.93     0  02:13      1.55    0.60    1.00
  YS02001655YS02001652 CONDUIT   1219.29     0  02:13      1.55    0.59    1.00
  YS02001658YS02001655 CONDUIT   1218.25     0  02:13      1.84    0.52    1.00
  YS02001661YS02001658 CONDUIT   1218.30     0  02:13      2.29    0.48    1.00
  YS02001664YS02001661 CONDUIT   1217.65     0  02:13      2.28    0.38    0.89
  YS02001745YS02001748 CONDUIT    770.21     0  02:13      2.14    0.30    0.96
  YS02001748YS02001751 CONDUIT    770.76     0  02:13      1.65    0.39    1.00
  YS02001751YS02001754 CONDUIT    770.48     0  02:13      1.38    0.37    1.00
  YS02001754YS02001757 CONDUIT    771.07     0  02:13      0.98    0.31    1.00
  YS02001757CaochengTiaoxuchi CONDUIT   3583.36     0  02:13      6.17    1.55    1.00
  YS02001759YS02001757 CONDUIT   1509.71     0  02:13      1.92    1.07    1.00
  YS02001762YS02001759 CONDUIT    831.03     0  02:20      1.06    0.96    1.00
  YS02001765YS02001762 CONDUIT    830.87     0  02:20      1.06    0.78    1.00
  YS02001767YS02001765 CONDUIT    830.58     0  02:20      1.06    1.04    1.00
  YS02001770YS02001767 CONDUIT    829.76     0  02:20      1.06    3.29    1.00
  YS02001774YS02001770 CONDUIT    849.26     0  02:14      1.08    0.54    1.00
  YS02001779YS02001774 CONDUIT    849.75     0  02:15      1.08    0.43    1.00
  YS02001783YS02001784 CONDUIT   1172.09     0  02:11      2.33    1.62    1.00
  YS02001784YS02001785 CONDUIT   1173.26     0  02:11      2.33    2.73    1.00
  YS02001786YS02001788 CONDUIT   1173.99     0  02:11      2.50    2.26    0.89
  YS02001788YS02001790 CONDUIT   1187.22     0  02:10      2.73    0.88    0.84
  YS02001790YS02001791 CONDUIT   1294.36     0  02:13      3.42    1.41    0.71
  YS02001791YS02001793 CONDUIT   1253.11     0  02:10      6.74    0.54    0.43
  YS02001793JiankangQianchi CONDUIT   1355.91     0  02:10     15.24    0.11    0.50
  YS02001882YS02001884 CONDUIT     34.31     0  02:01      0.14    0.04    1.00
  YS02001884YS02001887 CONDUIT     49.62     0  02:00      0.10    0.07    1.00
  YS02001887YS02001890 CONDUIT   1135.55     0  02:13      1.45    1.94    1.00
  YS02001890YS02001895 CONDUIT    541.96     0  02:19      0.69    0.25    1.00
  YS02001895YS02001898 CONDUIT    517.79     0  02:15      0.66    0.90    1.00
  YS02001898YS02001901 CONDUIT    517.92     0  02:16      0.66    0.33    1.00
  YS02001901YS02001904 CONDUIT    517.68     0  02:16      0.66    0.80    1.00
  YS02001904YS02001907 CONDUIT    517.96     0  02:15      0.66    0.18    1.00
  YS02001907YS02006553 CONDUIT    802.29     0  02:31      0.89    0.94    1.00
  YS02001910YS02001907 CONDUIT   1973.85     0  02:14      2.51    1.11    1.00
  YS02001915YS02001910 CONDUIT   1973.71     0  02:14      2.51    0.98    1.00
  YS02001918YS02001915 CONDUIT    652.73     0  02:14      0.83    0.36    1.00
  YS02001920YS02001918 CONDUIT    651.84     0  02:14      0.83    0.63    1.00
  YS02001923YS02001920 CONDUIT    649.01     0  02:14      0.83    0.29    1.00
  YS02001926YS02001923 CONDUIT    647.47     0  02:14      0.94    0.92    1.00
  YS02001929YS02001926 CONDUIT    647.54     0  02:14      1.08    0.31    1.00
  YS02006553YS02006556 CONDUIT    802.45     0  02:31      1.02    0.69    1.00
  YS02006556YS02006558 CONDUIT    803.05     0  02:31      1.02    0.63    1.00
  YS02006558YS02006561 CONDUIT   1172.53     0  02:11      4.15    2.59    1.00
  YS02006561YS02001783 CONDUIT   1171.93     0  02:11      2.33    0.61    1.00
  YS02163301YS02001633 CONDUIT    960.22     0  02:35      1.22    0.90    1.00
  YS02163601YS02164001 CONDUIT   1372.56     0  02:03      1.75    1.22    1.00
  YS02164001YS02001641 CONDUIT   1372.19     0  02:03      1.75    1.87    1.00
  CC-R1                PUMP       683.00     0  00:00              1.00
  CC-R2                PUMP       683.00     0  00:00              1.00
  CC-S1                PUMP       200.00     0  00:00              1.00
  CC-S2                PUMP       200.00     0  00:00              1.00
  JK-R1                PUMP      1000.00     0  00:00              1.00
  JK-R2                PUMP      1000.00     0  00:00              1.00
  JK-S                 PUMP       300.00     0  00:00              1.00
  
  
  ***************************
  Flow Classification Summary
  ***************************
  
  -------------------------------------------------------------------------------------
                      Adjusted    ---------- Fraction of Time in Flow Class ---------- 
                       /Actual         Up    Down  Sub   Sup   Up    Down  Norm  Inlet 
  Conduit               Length    Dry  Dry   Dry   Crit  Crit  Crit  Crit  Ltd   Ctrl  
  -------------------------------------------------------------------------------------
  1                       1.00   0.00  0.00  0.00  0.00  1.00  0.00  0.00  0.59  0.00
  WS02003060WS02003069    1.00   0.00  0.00  0.00  0.97  0.03  0.00  0.00  0.74  0.00
  WS02003066WSF200        1.00   0.05  0.00  0.00  0.00  0.95  0.00  0.00  0.92  0.00
  WS02003067WS02003066    1.00   0.05  0.00  0.00  0.95  0.00  0.00  0.00  0.00  0.00
  WS02003069WS02003072    1.00   0.00  0.00  0.00  0.99  0.01  0.00  0.00  0.76  0.00
  WS02003072WS02003073    1.00   0.00  0.00  0.00  0.00  0.00  0.00  1.00  0.00  0.00
  WS02004401WS02004402    1.00   0.02  0.00  0.00  0.98  0.00  0.00  0.00  0.00  0.00
  WS02004402WS02004403    1.00   0.02  0.00  0.00  0.98  0.00  0.00  0.00  0.00  0.00
  WS02004403WS02004404    1.00   0.00  0.03  0.00  0.97  0.00  0.00  0.00  0.00  0.00
  WS02004404WS02004405    1.00   0.00  0.00  0.00  1.00  0.00  0.00  0.00  0.01  0.00
  WS02004405WS02004406    1.00   0.00  0.00  0.00  1.00  0.00  0.00  0.00  0.00  0.00
  WS02004406WS02004407    1.00   0.00  0.03  0.00  0.97  0.00  0.00  0.00  0.00  0.00
  WS02004407WS02004409    1.00   0.03  0.00  0.00  0.95  0.01  0.00  0.00  0.96  0.00
  WS02004409WS02004410    1.00   0.03  0.00  0.00  0.96  0.00  0.00  0.00  0.00  0.00
  WS02004410WS02004411    1.00   0.04  0.00  0.00  0.96  0.00  0.00  0.00  0.00  0.00
  WS02004411WS02004412    1.00   0.04  0.00  0.00  0.96  0.00  0.00  0.00  0.00  0.00
  WS02004412WS02004413    1.00   0.04  0.00  0.00  0.96  0.00  0.00  0.00  0.00  0.00
  WS02004413WS02003067    1.00   0.04  0.01  0.00  0.00  0.00  0.95  0.00  0.00  0.00
  WS02006109WS02006110    1.00   0.00  0.01  0.00  0.98  0.00  0.01  0.00  0.00  0.00
  WS02006110WS02006113    1.00   0.01  0.01  0.00  0.98  0.00  0.00  0.00  0.00  0.00
  WS02006111WS02006112    1.00   0.02  0.00  0.00  0.98  0.00  0.00  0.00  0.98  0.00
  WS02006112WS02006115    1.00   0.02  0.00  0.00  0.97  0.00  0.00  0.00  0.00  0.00
  WS02006113WS02006111    1.00   0.02  0.00  0.00  0.00  0.98  0.00  0.00  0.11  0.00
  WS02006115WS02006116    1.00   0.02  0.00  0.00  0.97  0.00  0.00  0.01  0.00  0.00
  WS02006116WS02004401    1.00   0.02  0.00  0.00  0.98  0.00  0.00  0.00  0.00  0.00
  WS02006228WS02006109    1.00   0.00  0.00  0.00  1.00  0.00  0.00  0.00  0.00  0.00
  WS02006229WS02006228    1.00   0.00  0.00  0.00  0.99  0.00  0.00  0.01  0.00  0.00
  WS02006230WS02006229    1.00   0.00  0.00  0.00  0.99  0.00  0.00  0.01  0.02  0.00
  WS02006231WS02006230    1.00   0.00  0.00  0.00  0.25  0.00  0.75  0.00  0.00  0.00
  WS02006232WS02006231    1.00   0.00  0.00  0.00  0.99  0.00  0.01  0.00  0.00  0.00
  WS02006234WS02006232    1.00   0.00  0.00  0.00  1.00  0.00  0.00  0.00  0.19  0.00
  WS02006235WS02006234    1.00   0.00  0.00  0.00  0.59  0.00  0.41  0.00  0.00  0.00
  WS02006238WS02006235    1.00   0.00  0.00  0.00  1.00  0.00  0.00  0.00  0.01  0.00
  WS02006239WS02006238    1.00   0.00  0.00  0.00  1.00  0.00  0.00  0.00  0.36  0.00
  WS02006240WS02006239    1.00   0.00  0.00  0.00  0.50  0.00  0.00  0.50  0.04  0.00
  WS02006242WS02006240    1.00   0.00  0.00  0.00  0.99  0.00  0.01  0.00  0.00  0.00
  WS02006243WS02006242    1.00   0.00  0.00  0.00  0.99  0.00  0.00  0.01  0.66  0.00
  WS02006245WS02006243    1.00   0.00  0.00  0.00  0.50  0.00  0.00  0.50  0.01  0.00
  WS02006247WS02006245    1.00   0.00  0.00  0.00  0.99  0.00  0.00  0.01  0.00  0.00
  WS02006248WS02006247    1.00   0.00  0.00  0.00  0.99  0.00  0.00  0.01  0.19  0.00
  WS02006249WS02006248    1.00   0.00  0.00  0.00  0.33  0.00  0.67  0.00  0.00  0.00
  WS02006251WS02006249    1.00   0.00  0.00  0.00  0.99  0.00  0.00  0.00  0.67  0.00
  WS02006252WS02006251    1.00   0.00  0.27  0.00  0.07  0.00  0.66  0.00  0.10  0.00
  WS02006256WS02006235    1.00   0.00  0.00  0.00  0.99  0.01  0.00  0.00  0.01  0.00
  WSF200WS02003060        1.00   0.00  0.05  0.00  0.50  0.45  0.00  0.00  0.69  0.00
  YS02001580YS02001583    1.00   0.25  0.54  0.00  0.21  0.00  0.00  0.00  0.64  0.00
  YS02001583YS02001586    1.00   0.40  0.33  0.00  0.26  0.00  0.00  0.00  0.64  0.00
  YS02001586YS02001590    1.00   0.13  0.00  0.00  0.46  0.04  0.00  0.38  0.37  0.00
  YS02001590YS02001593    1.00   0.13  0.01  0.00  0.13  0.00  0.73  0.00  0.00  0.00
  YS02001593YS02001596    1.00   0.14  0.00  0.00  0.15  0.01  0.00  0.70  0.02  0.00
  YS02001596YS02001600    1.00   0.14  0.00  0.00  0.21  0.01  0.00  0.64  0.04  0.00
  YS02001600YS02001601    1.00   0.13  0.01  0.00  0.86  0.00  0.00  0.00  0.59  0.00
  YS02001601YS02001602    1.00   0.13  0.01  0.00  0.86  0.00  0.00  0.00  0.00  0.00
  YS02001602YS02001605    1.00   0.14  0.00  0.00  0.86  0.00  0.00  0.00  0.00  0.00
  YS02001605YS02001607    1.00   0.14  0.00  0.00  0.86  0.00  0.00  0.00  0.00  0.00
  YS02001607YS02001610    1.00   0.13  0.01  0.00  0.86  0.00  0.00  0.00  0.01  0.00
  YS02001610YS02001613    1.00   0.13  0.00  0.00  0.87  0.00  0.00  0.00  0.00  0.00
  YS02001613YS02001616    1.00   0.13  0.00  0.00  0.87  0.00  0.00  0.00  0.00  0.00
  YS02001616YS02001619    1.00   0.13  0.00  0.00  0.87  0.00  0.00  0.00  0.00  0.00
  YS02001619YS02001622    1.00   0.13  0.00  0.00  0.87  0.00  0.00  0.00  0.27  0.00
  YS02001622YS02001625    1.00   0.13  0.00  0.00  0.87  0.00  0.00  0.00  0.04  0.00
  YS02001625YS02001629    1.00   0.13  0.05  0.00  0.17  0.00  0.65  0.00  0.00  0.00
  YS02001629YS02163301    1.00   0.15  0.01  0.00  0.84  0.00  0.00  0.00  0.00  0.00
  YS02001633YS02163601    1.00   0.00  0.01  0.00  0.99  0.00  0.00  0.00  0.15  0.00
  YS02001641YS02001644    1.00   0.00  0.01  0.00  0.99  0.00  0.00  0.00  0.00  0.00
  YS02001644YS02001647    1.00   0.00  0.17  0.00  0.83  0.00  0.00  0.00  0.00  0.00
  YS02001647YS02001649    1.00   0.00  0.17  0.00  0.51  0.32  0.00  0.00  0.55  0.00
  YS02001649YS02001757    1.00   0.00  0.00  0.00  0.66  0.34  0.00  0.00  0.50  0.00
  YS02001652YS02001649    1.00   0.00  0.00  0.00  0.97  0.03  0.00  0.00  0.73  0.00
  YS02001655YS02001652    1.00   0.00  0.00  0.00  0.20  0.01  0.00  0.79  0.09  0.00
  YS02001658YS02001655    1.00   0.00  0.14  0.00  0.62  0.23  0.00  0.00  0.71  0.00
  YS02001661YS02001658    1.00   0.14  0.00  0.00  0.46  0.40  0.00  0.00  0.71  0.00
  YS02001664YS02001661    1.00   0.13  0.00  0.00  0.73  0.15  0.00  0.00  0.84  0.00
  YS02001745YS02001748    1.00   0.00  0.00  0.00  0.06  0.01  0.00  0.93  0.03  0.00
  YS02001748YS02001751    1.00   0.00  0.00  0.00  0.78  0.22  0.00  0.00  0.79  0.00
  YS02001751YS02001754    1.00   0.00  0.00  0.00  0.13  0.01  0.00  0.86  0.04  0.00
  YS02001754YS02001757    1.00   0.00  0.00  0.00  1.00  0.00  0.00  0.00  0.84  0.00
  YS02001757CaochengTiaoxuchi    1.00   0.00  0.00  0.00  0.74  0.26  0.00  0.00  0.75  0.00
  YS02001759YS02001757    1.00   0.00  0.00  0.00  1.00  0.00  0.00  0.00  0.60  0.00
  YS02001762YS02001759    1.00   0.00  0.00  0.00  1.00  0.00  0.00  0.00  0.04  0.00
  YS02001765YS02001762    1.00   0.00  0.00  0.00  1.00  0.00  0.00  0.00  0.72  0.00
  YS02001767YS02001765    1.00   0.00  0.00  0.00  1.00  0.00  0.00  0.00  0.00  0.00
  YS02001770YS02001767    1.00   0.00  0.00  0.00  1.00  0.00  0.00  0.00  0.00  0.00
  YS02001774YS02001770    1.00   0.00  0.13  0.00  0.71  0.00  0.15  0.00  0.03  0.00
  YS02001779YS02001774    1.00   0.00  0.00  0.00  1.00  0.00  0.00  0.00  0.78  0.00
  YS02001783YS02001784    1.00   0.00  0.18  0.00  0.82  0.00  0.00  0.00  0.54  0.00
  YS02001784YS02001785    1.00   0.00  0.00  0.00  1.00  0.00  0.00  0.00  0.17  0.00
  YS02001786YS02001788    1.00   0.00  0.00  0.00  0.79  0.21  0.00  0.00  0.00  0.00
  YS02001788YS02001790    1.00   0.00  0.00  0.00  0.22  0.78  0.00  0.00  0.79  0.00
  YS02001790YS02001791    1.00   0.00  0.00  0.00  0.01  0.99  0.00  0.00  0.16  0.00
  YS02001791YS02001793    1.00   0.00  0.00  0.00  0.00  1.00  0.00  0.00  0.01  0.00
  YS02001793JiankangQianchi    1.00   0.00  0.00  0.00  0.43  0.57  0.00  0.00  0.76  0.00
  YS02001882YS02001884    1.00   0.15  0.01  0.00  0.84  0.00  0.00  0.00  0.00  0.00
  YS02001884YS02001887    1.00   0.06  0.05  0.00  0.89  0.00  0.00  0.00  0.00  0.00
  YS02001887YS02001890    1.00   0.00  0.00  0.00  0.97  0.00  0.03  0.00  0.00  0.00
  YS02001890YS02001895    1.00   0.00  0.16  0.00  0.84  0.00  0.00  0.00  0.00  0.00
  YS02001895YS02001898    1.00   0.16  0.00  0.00  0.82  0.00  0.02  0.00  0.00  0.00
  YS02001898YS02001901    1.00   0.16  0.00  0.00  0.83  0.00  0.00  0.00  0.01  0.00
  YS02001901YS02001904    1.00   0.16  0.00  0.00  0.84  0.00  0.00  0.00  0.00  0.00
  YS02001904YS02001907    1.00   0.00  0.16  0.00  0.84  0.00  0.00  0.00  0.00  0.00
  YS02001907YS02006553    1.00   0.00  0.02  0.00  0.98  0.00  0.00  0.00  0.00  0.00
  YS02001910YS02001907    1.00   0.00  0.00  0.00  0.97  0.00  0.00  0.03  0.12  0.00
  YS02001915YS02001910    1.00   0.00  0.00  0.00  0.97  0.03  0.00  0.00  0.15  0.00
  YS02001918YS02001915    1.00   0.00  0.01  0.00  0.98  0.02  0.00  0.00  0.73  0.00
  YS02001920YS02001918    1.00   0.00  0.01  0.00  0.99  0.00  0.00  0.00  0.00  0.00
  YS02001923YS02001920    1.00   0.00  0.00  0.00  1.00  0.00  0.00  0.00  0.91  0.00
  YS02001926YS02001923    1.00   0.00  0.07  0.00  0.07  0.00  0.85  0.00  0.00  0.00
  YS02001929YS02001926    1.00   0.00  0.13  0.00  0.87  0.00  0.00  0.00  0.81  0.00
  YS02006553YS02006556    1.00   0.01  0.00  0.00  0.99  0.00  0.00  0.00  0.03  0.00
  YS02006556YS02006558    1.00   0.00  0.00  0.00  1.00  0.00  0.00  0.00  0.00  0.00
  YS02006558YS02006561    1.00   0.18  0.00  0.00  0.07  0.75  0.00  0.00  0.18  0.00
  YS02006561YS02001783    1.00   0.18  0.00  0.00  0.11  0.72  0.00  0.00  0.67  0.00
  YS02163301YS02001633    1.00   0.00  0.15  0.00  0.85  0.00  0.00  0.00  0.00  0.00
  YS02163601YS02164001    1.00   0.00  0.08  0.00  0.92  0.00  0.00  0.00  0.00  0.00
  YS02164001YS02001641    1.00   0.01  0.08  0.00  0.92  0.00  0.00  0.00  0.06  0.00
  
  
  *************************
  Conduit Surcharge Summary
  *************************
  
  ----------------------------------------------------------------------------
                                                           Hours        Hours 
                         --------- Hours Full --------   Above Full   Capacity
  Conduit                Both Ends  Upstream  Dnstream   Normal Flow   Limited
  ----------------------------------------------------------------------------
  WS02003072WS02003073        0.01      0.01      0.01      0.81         0.01
  WS02004404WS02004405        0.01      0.01      0.01      2.51         0.01
  WS02006109WS02006110        0.01      0.01      1.85      0.01         0.01
  WS02006110WS02006113        0.01      0.01      1.82      0.01         0.01
  WS02006111WS02006112        0.01      0.01      1.89      0.01         0.01
  WS02006112WS02006115        0.01      0.01      0.51      0.01         0.01
  WS02006228WS02006109        1.76      1.85      1.76      2.12         1.76
  WS02006229WS02006228        1.75      1.78      1.75      2.02         1.75
  WS02006230WS02006229        1.92      1.96      1.92      2.87         1.92
  WS02006231WS02006230        0.01      0.01      0.27      2.62         0.01
  WS02006232WS02006231        0.11      0.11      1.86      0.27         0.01
  WS02006234WS02006232        1.48      1.48      1.86      0.13         0.36
  WS02006235WS02006234        0.77      0.83      1.58      2.48         0.21
  WS02006238WS02006235        1.73      1.73      1.88      0.01         0.10
  WS02006239WS02006238        1.81      1.86      1.81      2.02         1.48
  WS02006240WS02006239        1.72      1.81      1.72      2.02         1.45
  WS02006242WS02006240        1.78      1.78      1.94      2.12         0.05
  WS02006243WS02006242        1.82      1.82      1.90      0.01         0.29
  WS02006245WS02006243        1.80      1.82      1.80      2.11         1.49
  WS02006247WS02006245        1.80      1.84      1.80      2.24         1.65
  WS02006248WS02006247        1.80      1.80      1.83      0.01         0.45
  WS02006249WS02006248        1.79      1.79      1.81      2.23         0.01
  WS02006251WS02006249        1.81      1.82      1.81      2.21         1.39
  WS02006252WS02006251        2.24      2.24      2.24      2.25         0.01
  WS02006256WS02006235        2.09      2.53      4.07      0.50         0.10
  YS02001580YS02001583        0.74      0.74      0.77      0.01         0.01
  YS02001583YS02001586        0.75      0.75      0.84      0.01         0.01
  YS02001586YS02001590        0.85      0.85      0.93      0.01         0.01
  YS02001590YS02001593        0.93      0.93      0.95      1.00         0.01
  YS02001593YS02001596        0.94      0.94      1.05      0.01         0.01
  YS02001596YS02001600        1.11      1.11      1.22      0.01         0.01
  YS02001600YS02001601        1.28      1.28      1.54      0.01         0.01
  YS02001601YS02001602        1.44      1.44      1.58      1.25         0.01
  YS02001602YS02001605        1.38      1.38      1.44      2.40         0.01
  YS02001605YS02001607        1.34      1.38      1.34      1.51         1.34
  YS02001607YS02001610        0.85      0.85      0.89      0.01         0.01
  YS02001610YS02001613        0.84      0.84      0.89      0.01         0.01
  YS02001613YS02001616        0.80      0.80      0.84      0.01         0.01
  YS02001616YS02001619        0.78      0.78      0.80      0.09         0.06
  YS02001619YS02001622        0.77      0.78      0.77      0.98         0.76
  YS02001622YS02001625        0.77      0.77      0.99      0.01         0.01
  YS02001625YS02001629        0.69      0.69      0.99      0.01         0.01
  YS02001629YS02163301        0.96      0.96      0.97      0.41         0.39
  YS02001633YS02163601        0.99      0.99      1.02      0.55         0.54
  YS02001641YS02001644        0.80      0.86      0.80      1.62         0.79
  YS02001644YS02001647        0.54      0.54      0.80      0.04         0.01
  YS02001647YS02001649        0.54      0.54      0.60      0.01         0.01
  YS02001649YS02001757        0.59      0.60      0.59      0.47         0.38
  YS02001652YS02001649        0.46      0.46      0.60      0.01         0.01
  YS02001655YS02001652        0.34      0.34      0.43      0.01         0.01
  YS02001658YS02001655        0.25      0.25      0.34      0.01         0.01
  YS02001661YS02001658        0.10      0.10      0.25      0.01         0.01
  YS02001664YS02001661        0.01      0.01      0.15      0.01         0.01
  YS02001745YS02001748        0.01      0.01      0.17      0.01         0.01
  YS02001748YS02001751        0.22      0.22      0.28      0.01         0.01
  YS02001751YS02001754        0.28      0.28      0.34      0.01         0.01
  YS02001754YS02001757        0.36      0.36      0.59      0.01         0.01
  YS02001757CaochengTiaoxuchi        0.17      0.59      0.61      0.59         0.10
  YS02001759YS02001757        0.52      0.52      0.59      0.12         0.13
  YS02001762YS02001759        0.49      0.49      0.52      0.01         0.03
  YS02001765YS02001762        0.46      0.46      0.49      0.01         0.01
  YS02001767YS02001765        0.44      0.44      0.46      0.02         0.05
  YS02001770YS02001767        0.44      0.45      0.44      0.68         0.42
  YS02001774YS02001770        0.42      0.42      0.49      0.01         0.01
  YS02001779YS02001774        0.36      0.36      0.49      0.01         0.01
  YS02001783YS02001784        0.62      0.65      0.62      0.82         0.62
  YS02001784YS02001785        0.50      0.62      0.50      1.07         0.50
  YS02001786YS02001788        0.01      0.50      0.01      0.93         0.01
  YS02001790YS02001791        0.01      0.01      0.01      0.60         0.01
  YS02001882YS02001884        0.59      0.59      0.60      0.01         0.01
  YS02001884YS02001887        0.62      0.62      0.64      0.01         0.01
  YS02001887YS02001890        0.65      0.65      0.66      0.19         0.01
  YS02001890YS02001895        0.58      0.58      0.68      0.01         0.01
  YS02001895YS02001898        0.57      0.57      0.58      0.01         0.01
  YS02001898YS02001901        0.58      0.58      0.62      0.01         0.01
  YS02001901YS02001904        0.61      0.61      0.62      0.01         0.01
  YS02001904YS02001907        0.61      0.61      0.92      0.01         0.01
  YS02001907YS02006553        1.09      1.09      1.16      0.01         0.01
  YS02001910YS02001907        0.68      0.68      0.89      0.07         0.07
  YS02001915YS02001910        0.59      0.59      0.68      0.01         0.01
  YS02001918YS02001915        0.49      0.49      0.59      0.01         0.01
  YS02001920YS02001918        0.49      0.49      0.51      0.01         0.01
  YS02001923YS02001920        0.45      0.45      0.51      0.01         0.01
  YS02001926YS02001923        0.20      0.20      0.24      0.01         0.01
  YS02001929YS02001926        0.09      0.09      0.24      0.01         0.01
  YS02006553YS02006556        0.78      0.78      0.91      0.01         0.01
  YS02006556YS02006558        0.85      0.85      0.94      0.01         0.01
  YS02006558YS02006561        0.53      0.77      0.53      1.02         0.53
  YS02006561YS02001783        0.46      0.46      0.65      0.01         0.01
  YS02163301YS02001633        0.97      0.97      1.02      0.01         0.02
  YS02163601YS02164001        0.88      0.88      1.02      0.35         0.01
  YS02164001YS02001641        0.86      0.88      0.86      0.82         0.64
  
  
  ***************
  Pumping Summary
  ***************
  
  ---------------------------------------------------------------------------------------------------------
                                                  Min       Avg       Max     Total     Power    % Time Off
                        Percent   Number of      Flow      Flow      Flow    Volume     Usage    Pump Curve
  Pump                 Utilized   Start-Ups       LPS       LPS       LPS  10^6 ltr     Kw-hr    Low   High
  ---------------------------------------------------------------------------------------------------------
  CC-R1                   28.36           4      0.00    683.00    683.00     5.520     92.27    0.0   73.0
  CC-R2                   28.36           4      0.00    683.00    683.00     5.520     92.27    0.0   73.0
  CC-S1                   28.36           4      0.00    200.00    200.00     1.616     11.87    0.0   28.5
  CC-S2                   28.36           4      0.00    200.00    200.00     1.616     11.87    0.0   28.5
  JK-R1                    7.36         302      0.00   1000.00   1000.00     2.099      5.64    0.0    0.0
  JK-R2                    7.36         302      0.00   1000.00   1000.00     2.099      5.64    0.0    0.0
  JK-S                     7.36         302      0.00    300.00    300.00     0.630     14.22    0.0    0.0
  

  Analysis begun on:  Tue Apr 22 10:15:50 2025
  Analysis ended on:  Tue Apr 22 10:15:51 2025
  Total elapsed time: 00:00:01