
  EPA STORM WATER MANAGEMENT MODEL - VERSION 5.2 (Build 5.2.4)
  PYSWMM TOOLKIT API - VERSION v1.0 (2023-11-27)
  ------------------------------------------------------------

  WARNING 04: minimum elevation drop used for Conduit WS02004404WS02004405
  WARNING 03: negative offset ignored for Link YS02001904YS02001907
  
  ****************
  Analysis Options
  ****************
  Flow Units ............... LPS
  Process Models:
    Rainfall/Runoff ........ YES
    RDII ................... NO
    Snowmelt ............... NO
    Groundwater ............ NO
    Flow Routing ........... YES
    Ponding Allowed ........ NO
    Water Quality .......... NO
  Infiltration Method ...... HORTON
  Flow Routing Method ...... DYNWAVE
  Surcharge Method ......... EXTRAN
  Starting Date ............ 08/28/2015 08:00:00
  Ending Date .............. 08/28/2015 16:00:00
  Antecedent Dry Days ...... 8.0
  Report Time Step ......... 00:01:00
  Wet Time Step ............ 00:01:00
  Dry Time Step ............ 00:01:00
  Routing Time Step ........ 30.00 sec
  Variable Time Step ....... YES
  Maximum Trials ........... 8
  Number of Threads ........ 4
  Head Tolerance ........... 0.001500 m
  
  
  **************************        Volume         Depth
  Runoff Quantity Continuity     hectare-m            mm
  **************************     ---------       -------
  Total Precipitation ......         1.718        51.786
  Evaporation Loss .........         0.000         0.000
  Infiltration Loss ........         0.096         2.892
  Surface Runoff ...........         1.589        47.911
  Final Storage ............         0.033         0.996
  Continuity Error (%) .....        -0.025
  
  
  **************************        Volume        Volume
  Flow Routing Continuity        hectare-m      10^6 ltr
  **************************     ---------     ---------
  Dry Weather Inflow .......         0.025         0.248
  Wet Weather Inflow .......         1.589        15.889
  Groundwater Inflow .......         0.000         0.000
  RDII Inflow ..............         0.000         0.000
  External Inflow ..........         0.083         0.825
  External Outflow .........         1.528        15.282
  Flooding Loss ............         0.363         3.632
  Evaporation Loss .........         0.000         0.000
  Exfiltration Loss ........         0.000         0.000
  Initial Stored Volume ....         0.243         2.431
  Final Stored Volume ......         0.064         0.636
  Continuity Error (%) .....        -0.810
  
  
  *************************
  Highest Continuity Errors
  *************************
  Node WS02006256 (-15.68%)
  Node YS02001583 (-5.29%)
  Node YS02001884 (5.23%)
  Node JK-storage (-2.23%)
  
  
  ***************************
  Time-Step Critical Elements
  ***************************
  Link WS02006238WS02006235 (22.34%)
  Link WS02004404WS02004405 (20.86%)
  Link YS02001793JiankangQianchi (18.74%)
  Link WS02003066WSF200 (11.40%)
  Link YS02006556YS02006558 (5.72%)
  
  
  ********************************
  Highest Flow Instability Indexes
  ********************************
  Link WS02006252WS02006251 (37)
  Link WS02006113WS02006111 (32)
  Link WS02006256WS02006235 (27)
  Link WS02006229WS02006228 (22)
  Link WS02006238WS02006235 (20)
  
  
  *********************************
  Most Frequent Nonconverging Nodes
  *********************************
  Node CC-1 (30.70%)
  Node CC-2 (30.70%)
  Node JK-1 (30.70%)
  Node JK-2 (30.70%)
  Node WSC (30.70%)
  
  
  *************************
  Routing Time Step Summary
  *************************
  Minimum Time Step           :     0.00 sec
  Average Time Step           :     3.24 sec
  Maximum Time Step           :     6.43 sec
  % of Time in Steady State   :     0.00
  Average Iterations per Step :     4.22
  % of Steps Not Converging   :    30.70
  Time Step Frequencies       :
     30.000 - 13.228 sec      :     0.00 %
     13.228 -  5.833 sec      :    18.44 %
      5.833 -  2.572 sec      :    34.36 %
      2.572 -  1.134 sec      :    35.05 %
      1.134 -  0.500 sec      :    12.16 %
  
  
  ***************************
  Subcatchment Runoff Summary
  ***************************
  
  ------------------------------------------------------------------------------------------------------------------------------
                            Total      Total      Total      Total     Imperv       Perv      Total       Total     Peak  Runoff
                           Precip      Runon       Evap      Infil     Runoff     Runoff     Runoff      Runoff   Runoff   Coeff
  Subcatchment                 mm         mm         mm         mm         mm         mm         mm    10^6 ltr      LPS
  ------------------------------------------------------------------------------------------------------------------------------
  sub60                     51.79       0.00       0.00       1.73      44.37       4.49      48.86        0.64   490.77   0.943
  sub61                     51.79       0.00       0.00       2.51      41.85       6.30      48.15        0.88   680.86   0.930
  sub62                     51.79       0.00       0.00       1.15      46.36       2.99      49.35        1.35   950.80   0.953
  sub63                     51.79       0.00       0.00       4.66      35.80      10.36      46.16        1.05   753.78   0.891
  sub64                     51.79       0.00       0.00       2.35      42.81       5.42      48.23        1.16   771.72   0.931
  sub65                     51.79       0.00       0.00       2.03      43.80       4.70      48.50        1.34   860.04   0.937
  sub66                     51.79       0.00       0.00       5.79      35.69       9.23      44.92        2.09  1103.99   0.867
  sub67                     51.79       0.00       0.00       1.11      46.40       3.04      49.44        0.92   745.88   0.955
  sub68                     51.79       0.00       0.00       2.08      43.35       5.17      48.52        1.34   973.49   0.937
  sub69                     51.79       0.00       0.00       1.84      43.90       5.93      49.83        1.84  1144.48   0.962
  sub70                     51.79       0.00       0.00       6.20      34.01      11.40      45.42        1.31   618.28   0.877
  sub71                     51.79       0.00       0.00       1.18      46.31       2.96      49.27        1.29   834.84   0.952
  sub72                     51.79       0.00       0.00       1.05      46.76       2.57      49.33        0.68   399.09   0.953
  
  
  ******************
  Node Depth Summary
  ******************
  
  ---------------------------------------------------------------------------------
                                 Average  Maximum  Maximum  Time of Max    Reported
                                   Depth    Depth      HGL   Occurrence   Max Depth
  Node                 Type       Meters   Meters   Meters  days hr:min      Meters
  ---------------------------------------------------------------------------------
  WS02003060           JUNCTION     0.19     0.36     5.30     0  02:28        0.36
  WS02003066           JUNCTION     0.16     0.28     5.84     0  02:28        0.28
  WS02003067           JUNCTION     0.43     0.68     6.00     0  02:28        0.68
  WS02003069           JUNCTION     0.21     0.41     4.99     0  02:29        0.41
  WS02003072           JUNCTION     0.26     0.48     4.85     0  02:30        0.48
  WS02003073           JUNCTION     0.14     0.28     4.35     0  02:30        0.28
  WS02004401           JUNCTION     0.52     0.83     6.83     0  02:25        0.83
  WS02004402           JUNCTION     0.55     0.86     6.82     0  02:25        0.86
  WS02004403           JUNCTION     0.57     0.87     6.80     0  02:25        0.87
  WS02004404           JUNCTION     0.65     0.96     6.81     0  02:23        0.96
  WS02004405           JUNCTION     0.64     0.93     6.78     0  02:23        0.93
  WS02004406           JUNCTION     0.65     0.93     6.76     0  02:23        0.93
  WS02004407           JUNCTION     0.14     0.28     6.59     0  02:26        0.28
  WS02004409           JUNCTION     0.31     0.63     6.40     0  02:26        0.63
  WS02004410           JUNCTION     0.33     0.65     6.37     0  02:27        0.65
  WS02004411           JUNCTION     0.36     0.66     6.34     0  02:27        0.66
  WS02004412           JUNCTION     0.38     0.67     6.31     0  02:27        0.67
  WS02004413           JUNCTION     0.53     0.83     6.30     0  02:28        0.83
  WS02006109           JUNCTION     0.58     0.92     7.54     0  02:18        0.92
  WS02006110           JUNCTION     0.59     0.89     7.47     0  02:18        0.88
  WS02006111           JUNCTION     0.15     0.27     6.98     0  02:18        0.27
  WS02006112           JUNCTION     0.67     1.02     6.91     0  02:24        1.02
  WS02006113           JUNCTION     0.22     0.43     7.32     0  02:18        0.43
  WS02006115           JUNCTION     0.41     0.72     6.86     0  02:25        0.72
  WS02006116           JUNCTION     0.49     0.80     6.84     0  02:25        0.80
  WS02006228           JUNCTION     0.57     0.96     7.61     0  02:18        0.95
  WS02006229           JUNCTION     0.54     0.95     7.64     0  02:11        0.94
  WS02006230           JUNCTION     0.53     1.01     7.76     0  02:12        1.01
  WS02006231           JUNCTION     0.34     1.35     8.47     0  02:29        0.74
  WS02006232           JUNCTION     0.46     1.64     8.68     0  02:40        1.52
  WS02006234           JUNCTION     0.38     1.96     9.12     0  02:26        1.96
  WS02006235           JUNCTION     0.42     2.00     9.16     0  02:29        2.00
  WS02006238           JUNCTION     0.45     2.15     9.29     0  02:29        2.15
  WS02006239           JUNCTION     0.42     2.03     9.24     0  02:29        2.03
  WS02006240           JUNCTION     0.40     2.10     9.39     0  02:29        2.10
  WS02006242           JUNCTION     0.46     1.55     8.82     0  02:11        1.55
  WS02006243           JUNCTION     0.39     1.48     8.90     0  02:15        1.48
  WS02006245           JUNCTION     0.40     1.56     9.04     0  02:29        1.56
  WS02006247           JUNCTION     0.42     1.47     8.97     0  02:29        1.47
  WS02006248           JUNCTION     0.39     1.10     8.69     0  02:08        1.10
  WS02006249           JUNCTION     0.42     1.09     8.69     0  02:09        1.09
  WS02006251           JUNCTION     0.41     1.24     8.91     0  02:29        1.14
  WS02006252           JUNCTION     0.28     1.50     9.74     0  00:00        0.97
  WS02006256           JUNCTION     0.76     2.35     9.28     0  00:00        2.35
  WSF200               JUNCTION     0.13     0.27     5.51     0  02:28        0.27
  YS02001580           JUNCTION     0.13     1.05     9.59     0  02:06        0.77
  YS02001583           JUNCTION     0.16     1.14     9.64     0  02:06        0.83
  YS02001586           JUNCTION     0.25     1.13     9.30     0  02:06        1.13
  YS02001590           JUNCTION     0.36     1.40     9.26     0  02:06        1.37
  YS02001593           JUNCTION     0.29     1.33     9.19     0  02:06        1.29
  YS02001596           JUNCTION     0.40     1.68     9.10     0  02:06        1.65
  YS02001600           JUNCTION     0.48     1.87     9.00     0  02:06        1.86
  YS02001601           JUNCTION     0.66     2.06     8.90     0  02:01        2.06
  YS02001602           JUNCTION     0.57     1.87     8.77     0  02:01        1.87
  YS02001605           JUNCTION     0.52     1.78     8.68     0  02:01        1.78
  YS02001607           JUNCTION     0.49     1.65     8.49     0  02:15        1.65
  YS02001610           JUNCTION     0.53     1.68     8.48     0  02:06        1.68
  YS02001613           JUNCTION     0.49     1.68     8.52     0  02:06        1.67
  YS02001616           JUNCTION     0.42     1.61     8.52     0  02:06        1.61
  YS02001619           JUNCTION     0.40     1.61     8.54     0  02:06        1.61
  YS02001622           JUNCTION     0.39     1.58     8.49     0  02:06        1.58
  YS02001625           JUNCTION     0.62     1.78     8.38     0  02:06        1.78
  YS02001629           JUNCTION     0.51     1.85     8.40     0  02:06        1.85
  YS02001633           JUNCTION     0.58     2.08     8.53     0  02:10        2.07
  YS02001641           JUNCTION     0.54     1.99     8.42     0  02:11        1.99
  YS02001644           JUNCTION     0.53     1.92     8.35     0  02:11        1.92
  YS02001647           JUNCTION     0.32     1.81     8.42     0  02:11        1.76
  YS02001649           JUNCTION     0.35     2.05     8.44     0  02:12        2.00
  YS02001652           JUNCTION     0.24     2.11     8.71     0  02:12        1.81
  YS02001655           JUNCTION     0.17     2.11     8.96     0  02:12        1.56
  YS02001658           JUNCTION     0.12     2.15     9.29     0  02:11        1.29
  YS02001661           JUNCTION     0.15     1.61     9.01     0  02:12        1.07
  YS02001664           JUNCTION     0.07     0.76     8.68     0  02:12        0.50
  YS02001745           JUNCTION     0.07     1.33     8.85     0  02:11        1.23
  YS02001748           JUNCTION     0.11     2.21     9.28     0  02:11        1.62
  YS02001751           JUNCTION     0.13     2.01     8.89     0  02:11        1.73
  YS02001754           JUNCTION     0.19     2.11     8.72     0  02:11        1.88
  YS02001757           JUNCTION     0.34     2.16     8.42     0  02:11        2.08
  YS02001759           JUNCTION     0.29     2.10     8.47     0  02:11        2.05
  YS02001762           JUNCTION     0.28     2.12     8.52     0  02:11        2.01
  YS02001765           JUNCTION     0.26     2.09     8.54     0  02:11        1.96
  YS02001767           JUNCTION     0.26     2.02     8.51     0  02:11        1.92
  YS02001770           JUNCTION     0.28     1.95     8.44     0  02:11        1.93
  YS02001774           JUNCTION     0.33     2.00     8.42     0  02:11        1.98
  YS02001779           JUNCTION     0.17     1.68     8.37     0  02:10        1.68
  YS02001783           JUNCTION     0.30     1.39     7.53     0  02:09        1.23
  YS02001784           JUNCTION     0.31     1.22     7.29     0  02:09        1.11
  YS02001786           JUNCTION     0.26     0.97     7.00     0  02:09        0.88
  YS02001788           JUNCTION     0.19     0.63     6.60     0  02:09        0.62
  YS02001790           JUNCTION     0.22     0.72     6.37     0  02:17        0.72
  YS02001791           JUNCTION     0.14     0.44     5.91     0  02:13        0.43
  YS02001793           JUNCTION     0.07     0.25     5.08     0  02:16        0.24
  YS02001882           JUNCTION     0.37     1.83     8.55     0  02:08        1.66
  YS02001884           JUNCTION     0.45     1.90     8.52     0  02:08        1.76
  YS02001887           JUNCTION     0.53     1.90     8.44     0  02:08        1.83
  YS02001890           JUNCTION     0.55     1.81     8.32     0  02:08        1.81
  YS02001895           JUNCTION     0.34     1.75     8.50     0  02:08        1.57
  YS02001898           JUNCTION     0.35     1.77     8.51     0  02:08        1.56
  YS02001901           JUNCTION     0.45     1.83     8.44     0  02:08        1.67
  YS02001904           JUNCTION     0.43     1.69     8.32     0  02:08        1.63
  YS02001907           JUNCTION     0.73     1.96     8.25     0  02:09        1.96
  YS02001910           JUNCTION     0.54     1.96     8.46     0  02:10        1.86
  YS02001915           JUNCTION     0.38     2.00     8.72     0  02:08        1.71
  YS02001918           JUNCTION     0.22     1.81     8.88     0  02:10        1.40
  YS02001920           JUNCTION     0.30     2.14     9.15     0  02:10        1.47
  YS02001923           JUNCTION     0.17     2.03     9.29     0  02:10        1.24
  YS02001926           JUNCTION     0.19     1.90     9.35     0  02:10        1.07
  YS02001929           JUNCTION     0.11     1.78     9.47     0  02:10        0.83
  YS02006553           JUNCTION     0.73     2.00     8.29     0  02:09        1.98
  YS02006556           JUNCTION     0.70     2.02     8.33     0  02:09        1.98
  YS02006558           JUNCTION     0.74     2.07     8.34     0  02:09        2.03
  YS02006561           JUNCTION     0.19     1.10     7.76     0  02:09        0.90
  YS02163301           JUNCTION     0.53     1.96     8.47     0  02:10        1.94
  YS02163601           JUNCTION     0.61     2.08     8.48     0  02:10        2.08
  YS02164001           JUNCTION     0.53     2.00     8.46     0  02:11        2.00
  CC-1                 OUTFALL      0.00     0.00     0.00     0  00:00        0.00
  CC-2                 OUTFALL      0.00     0.00     0.00     0  00:00        0.00
  JK-1                 OUTFALL      0.00     0.00     0.00     0  00:00        0.00
  JK-2                 OUTFALL      0.00     0.00     0.00     0  00:00        0.00
  WSC                  OUTFALL      0.14     0.28     0.95     0  02:31        0.28
  CC-storage           STORAGE      0.28     0.81     6.31     0  02:37        0.81
  JK-storage           STORAGE      0.11     2.99     3.79     0  00:00        0.68
  
  
  *******************
  Node Inflow Summary
  *******************
  
  -------------------------------------------------------------------------------------------------
                                  Maximum  Maximum                  Lateral       Total        Flow
                                  Lateral    Total  Time of Max      Inflow      Inflow     Balance
                                   Inflow   Inflow   Occurrence      Volume      Volume       Error
  Node                 Type           LPS      LPS  days hr:min    10^6 ltr    10^6 ltr     Percent
  -------------------------------------------------------------------------------------------------
  WS02003060           JUNCTION     16.53   500.58     0  02:28       0.471        3.43       0.054
  WS02003066           JUNCTION      0.00   483.78     0  02:28           0        2.96       0.045
  WS02003067           JUNCTION      0.00   483.66     0  02:28           0        2.96       0.134
  WS02003069           JUNCTION      0.32   500.65     0  02:29     0.00912        3.43       0.103
  WS02003072           JUNCTION      0.00   500.18     0  02:29           0        3.43       0.191
  WS02003073           JUNCTION      1.82   501.72     0  02:30      0.0519        3.48       0.143
  WS02004401           JUNCTION      0.00   487.78     0  02:19           0        3.06       0.327
  WS02004402           JUNCTION      0.00   487.12     0  02:22           0        3.05       0.332
  WS02004403           JUNCTION      0.00   488.72     0  02:22           0        3.04       0.327
  WS02004404           JUNCTION      0.16   500.64     0  02:23     0.00462        3.03       0.243
  WS02004405           JUNCTION      0.04   543.86     0  02:25     0.00109        3.03       0.370
  WS02004406           JUNCTION      0.00   489.76     0  02:23           0        3.01       0.687
  WS02004407           JUNCTION      0.00   486.02     0  02:26           0        2.99       0.028
  WS02004409           JUNCTION      0.00   485.51     0  02:26           0        2.99       0.073
  WS02004410           JUNCTION      0.00   484.80     0  02:26           0        2.99       0.135
  WS02004411           JUNCTION      0.00   484.66     0  02:27           0        2.99       0.174
  WS02004412           JUNCTION      0.00   484.29     0  02:27           0        2.98       0.234
  WS02004413           JUNCTION      0.00   484.25     0  02:27           0        2.97       0.442
  WS02006109           JUNCTION      1.23   491.21     0  02:12      0.0351         3.1       0.231
  WS02006110           JUNCTION      0.00   491.29     0  02:12           0         3.1       0.204
  WS02006111           JUNCTION      0.00   505.92     0  02:19           0        3.09       0.035
  WS02006112           JUNCTION      0.00   493.09     0  02:18           0        3.09       0.652
  WS02006113           JUNCTION      0.00   491.84     0  02:18           0        3.09       0.042
  WS02006115           JUNCTION      0.00   496.69     0  02:19           0        3.07       0.221
  WS02006116           JUNCTION      0.00   488.79     0  02:19           0        3.06       0.085
  WS02006228           JUNCTION      0.00   490.42     0  02:18           0        3.07       0.071
  WS02006229           JUNCTION      0.00   489.82     0  02:12           0        3.08       0.194
  WS02006230           JUNCTION     10.28   527.61     0  02:19       0.293        3.08       0.173
  WS02006231           JUNCTION      0.00   546.77     0  02:29           0        2.79      -0.104
  WS02006232           JUNCTION      0.00   541.83     0  02:29           0         2.8       0.376
  WS02006234           JUNCTION      0.00   558.81     0  02:38           0        2.78      -0.491
  WS02006235           JUNCTION      0.00   557.60     0  02:38           0        2.85       0.125
  WS02006238           JUNCTION      0.00   430.64     0  02:39           0        2.56      -0.235
  WS02006239           JUNCTION      0.00   424.05     0  02:39           0         2.5      -0.387
  WS02006240           JUNCTION      0.00   416.83     0  02:39           0        2.48      -0.204
  WS02006242           JUNCTION      0.00   418.30     0  02:46           0        2.48       0.066
  WS02006243           JUNCTION      0.00   418.96     0  02:35           0        2.49       0.196
  WS02006245           JUNCTION      0.00   418.76     0  02:35           0        2.51       0.766
  WS02006247           JUNCTION      0.00   418.74     0  02:35           0        2.51       0.023
  WS02006248           JUNCTION      0.00   419.33     0  02:35           0        2.52       0.175
  WS02006249           JUNCTION      0.00   481.41     0  02:00           0        2.54       0.652
  WS02006251           JUNCTION      0.08   408.24     0  02:53     0.00219        2.54      -0.068
  WS02006252           JUNCTION      0.00   400.00     0  00:00           0        2.53      -0.078
  WS02006256           JUNCTION      0.00   345.80     0  02:02           0       0.488     -13.557
  WSF200               JUNCTION      0.00   483.74     0  02:28           0        2.96       0.012
  YS02001580           JUNCTION      0.00   127.72     0  02:06           0     0.00431      -1.365
  YS02001583           JUNCTION      0.00   178.31     0  02:06           0      0.0153      -5.028
  YS02001586           JUNCTION    618.28   618.28     0  02:15        1.31        1.32       0.102
  YS02001590           JUNCTION      0.00   317.84     0  02:10           0        1.11      -0.040
  YS02001593           JUNCTION      0.00   317.94     0  02:28           0        1.11       0.022
  YS02001596           JUNCTION      0.00   317.86     0  02:23           0        1.11      -0.000
  YS02001600           JUNCTION      0.00   318.00     0  02:10           0        1.11       0.018
  YS02001601           JUNCTION   1144.48  1462.00     0  02:14        1.84        2.95       0.034
  YS02001602           JUNCTION      0.00   521.80     0  02:06           0        1.98       0.025
  YS02001605           JUNCTION      0.00   521.60     0  02:06           0        1.91       0.029
  YS02001607           JUNCTION      0.00   521.55     0  02:06           0        1.91       0.103
  YS02001610           JUNCTION      0.00   561.04     0  02:15           0           2       0.122
  YS02001613           JUNCTION      0.00   525.83     0  02:06           0         1.7       0.104
  YS02001616           JUNCTION      0.00   526.02     0  02:06           0         1.7       0.027
  YS02001619           JUNCTION   1103.99  1103.99     0  02:15        2.09        3.71       0.001
  YS02001622           JUNCTION      0.00   955.40     0  02:29           0        3.61       0.005
  YS02001625           JUNCTION      0.00  1171.82     0  02:15           0        3.69       0.243
  YS02001629           JUNCTION      0.00   955.74     0  02:29           0        3.18       0.018
  YS02001633           JUNCTION    860.24  1400.47     0  02:09        1.34        4.41       0.081
  YS02001641           JUNCTION      0.00  1398.52     0  02:09           0        4.31       0.069
  YS02001644           JUNCTION    771.76  1832.51     0  02:09        1.16        5.46       0.062
  YS02001647           JUNCTION      0.00  1831.80     0  02:09           0        5.31       0.009
  YS02001649           JUNCTION      0.00  2121.48     0  02:09           0        6.36       0.007
  YS02001652           JUNCTION      0.00   903.14     0  02:13           0        1.05      -0.082
  YS02001655           JUNCTION      0.15   903.54     0  02:13     0.00439        1.05       0.055
  YS02001658           JUNCTION      0.00   902.60     0  02:13           0        1.05      -0.030
  YS02001661           JUNCTION      0.00   893.72     0  02:12           0        1.05       0.011
  YS02001664           JUNCTION    753.78   753.78     0  02:14        1.05        1.05      -0.012
  YS02001745           JUNCTION    490.78   492.44     0  02:11       0.642       0.642       0.136
  YS02001748           JUNCTION      0.04   592.39     0  02:12     0.00128       0.643      -0.273
  YS02001751           JUNCTION      0.01   592.08     0  02:12    0.000313        0.65       0.111
  YS02001754           JUNCTION      0.26   591.48     0  02:12     0.00741       0.662      -0.182
  YS02001757           JUNCTION      0.00  3401.35     0  02:12           0        9.22       0.035
  YS02001759           JUNCTION    680.90  1391.82     0  02:11       0.884         2.2      -0.002
  YS02001762           JUNCTION      0.00   803.42     0  02:16           0        1.31       0.015
  YS02001765           JUNCTION      0.00   803.10     0  02:16           0        1.31       0.003
  YS02001767           JUNCTION      0.54   802.95     0  02:16      0.0152        1.31       0.012
  YS02001770           JUNCTION    950.95   950.95     0  02:14        1.36         1.4      -0.006
  YS02001774           JUNCTION      0.00   350.91     0  02:10           0       0.115       0.951
  YS02001779           JUNCTION      0.01   355.13     0  02:10    0.000142      0.0743      -0.669
  YS02001783           JUNCTION      0.00  1162.27     0  02:11           0        3.38       0.008
  YS02001784           JUNCTION      1.06  1163.84     0  02:11      0.0302        3.41       0.017
  YS02001786           JUNCTION      0.06  1163.56     0  02:12      0.0016        3.41       0.020
  YS02001788           JUNCTION      0.07  1163.48     0  02:12     0.00202        3.42       0.008
  YS02001790           JUNCTION      0.15  1175.06     0  02:13     0.00442        3.42       0.001
  YS02001791           JUNCTION      0.00  1285.56     0  02:17           0        3.42      -0.000
  YS02001793           JUNCTION      0.00  1250.47     0  02:13           0        3.42      -0.038
  YS02001882           JUNCTION      0.00    60.74     0  02:07           0      0.0127       5.301
  YS02001884           JUNCTION      0.00    78.38     0  02:07           0      0.0483       5.522
  YS02001887           JUNCTION    746.33   746.36     0  02:13       0.932       0.965       0.461
  YS02001890           JUNCTION      0.00   745.94     0  02:13           0       0.924       0.559
  YS02001895           JUNCTION      0.00   517.59     0  02:16           0       0.865       0.163
  YS02001898           JUNCTION      0.00   517.55     0  02:16           0       0.863       0.040
  YS02001901           JUNCTION      0.00   517.57     0  02:16           0       0.866       0.377
  YS02001904           JUNCTION      0.00   517.90     0  02:16           0        0.87       0.334
  YS02001907           JUNCTION      0.00  1799.51     0  02:13           0        2.91       0.626
  YS02001910           JUNCTION      0.00  1283.32     0  02:13           0        2.04       0.351
  YS02001915           JUNCTION    834.86  1282.76     0  02:13        1.29        2.09       0.077
  YS02001918           JUNCTION      0.00   452.40     0  02:13           0        0.83       0.016
  YS02001920           JUNCTION      2.87   451.94     0  02:13      0.0818       0.812       0.106
  YS02001923           JUNCTION      0.04   445.24     0  02:13     0.00107       0.714      -0.131
  YS02001926           JUNCTION      0.05   572.68     0  02:10     0.00149       0.694      -0.042
  YS02001929           JUNCTION    399.09   434.01     0  02:09       0.678       0.681      -0.043
  YS02006553           JUNCTION      0.00   798.66     0  02:27           0        2.07       0.580
  YS02006556           JUNCTION      0.00   799.56     0  02:27           0        2.08       0.397
  YS02006558           JUNCTION    974.37  1185.68     0  02:09        1.36        3.41       0.098
  YS02006561           JUNCTION      0.00  1185.28     0  02:09           0        3.38       0.002
  YS02163301           JUNCTION      0.00   956.29     0  02:29           0        3.16       0.055
  YS02163601           JUNCTION      0.11  1400.82     0  02:09     0.00313        4.31       0.118
  YS02164001           JUNCTION      0.00  1400.19     0  02:09           0        4.31       0.058
  CC-1                 OUTFALL       0.00   683.00     0  00:00           0        4.32       0.000
  CC-2                 OUTFALL       0.00   683.00     0  00:00           0        4.32       0.000
  JK-1                 OUTFALL       0.00  1000.00     0  00:00           0        1.59       0.000
  JK-2                 OUTFALL       0.00  1000.00     0  00:00           0        1.59       0.000
  WSC                  OUTFALL       0.00   501.50     0  02:31           0        3.47       0.000
  CC-storage           STORAGE       0.00  3401.29     0  02:12           0        11.4      -0.374
  JK-storage           STORAGE       0.00  1368.00     0  02:16           0        3.57      -2.180
  
  
  **********************
  Node Surcharge Summary
  **********************
  
  Surcharging occurs when water rises above the top of the highest conduit.
  ---------------------------------------------------------------------
                                               Max. Height   Min. Depth
                                   Hours       Above Crown    Below Rim
  Node                 Type      Surcharged         Meters       Meters
  ---------------------------------------------------------------------
  WS02006109           JUNCTION        1.24          0.103        1.717
  WS02006112           JUNCTION        0.25          0.024        1.656
  WS02006228           JUNCTION        1.23          0.129        2.071
  WS02006229           JUNCTION        1.25          0.151        2.299
  WS02006231           JUNCTION        0.08          0.640        0.890
  WS02006232           JUNCTION        1.34          0.940        0.540
  WS02006234           JUNCTION        0.59          1.240        0.000
  WS02006235           JUNCTION        1.14          1.290        0.000
  WS02006238           JUNCTION        1.29          1.430        0.000
  WS02006239           JUNCTION        1.23          1.290        0.000
  WS02006240           JUNCTION        1.25          1.390        0.000
  WS02006242           JUNCTION        1.37          0.820        0.000
  WS02006243           JUNCTION        1.28          0.770        0.000
  WS02006245           JUNCTION        1.27          0.850        0.000
  WS02006247           JUNCTION        1.29          0.760        0.000
  WS02006248           JUNCTION        1.26          0.380        0.000
  WS02006249           JUNCTION        1.28          0.390        0.000
  WS02006251           JUNCTION        0.37          0.208        0.972
  WS02006252           JUNCTION        1.76          1.100        0.000
  WS02006256           JUNCTION        4.44          2.050        0.000
  YS02001580           JUNCTION        0.47          0.450        0.000
  YS02001583           JUNCTION        0.48          0.500        0.000
  YS02001586           JUNCTION        0.56          0.510        0.000
  YS02001590           JUNCTION        0.63          0.750        0.000
  YS02001593           JUNCTION        0.63          0.706        0.134
  YS02001596           JUNCTION        0.73          0.947        0.123
  YS02001600           JUNCTION        0.86          1.190        0.000
  YS02001601           JUNCTION        1.20          1.440        0.000
  YS02001602           JUNCTION        1.10          1.270        0.000
  YS02001605           JUNCTION        1.04          1.180        0.000
  YS02001607           JUNCTION        0.56          0.645        0.035
  YS02001610           JUNCTION        0.59          0.680        0.000
  YS02001613           JUNCTION        0.56          0.681        0.019
  YS02001616           JUNCTION        0.52          0.610        0.000
  YS02001619           JUNCTION        0.50          0.610        0.000
  YS02001622           JUNCTION        0.50          0.582        0.038
  YS02001625           JUNCTION        0.67          0.780        0.000
  YS02001629           JUNCTION        0.41          0.470        0.000
  YS02001633           JUNCTION        0.68          1.060        0.000
  YS02001641           JUNCTION        0.57          0.988        0.112
  YS02001644           JUNCTION        0.51          0.920        0.000
  YS02001647           JUNCTION        0.30          0.809        0.091
  YS02001649           JUNCTION        0.33          1.050        0.000
  YS02001652           JUNCTION        0.24          1.080        0.050
  YS02001655           JUNCTION        0.18          1.114        0.086
  YS02001658           JUNCTION        0.11          1.153        0.147
  YS02001661           JUNCTION        0.01          0.538        0.852
  YS02001745           JUNCTION        0.01          0.330        1.020
  YS02001748           JUNCTION        0.04          1.128        0.062
  YS02001751           JUNCTION        0.13          1.010        0.190
  YS02001754           JUNCTION        0.17          1.061        0.089
  YS02001757           JUNCTION        0.31          1.159        0.051
  YS02001759           JUNCTION        0.27          1.105        0.105
  YS02001762           JUNCTION        0.27          1.120        0.030
  YS02001765           JUNCTION        0.25          1.085        0.015
  YS02001767           JUNCTION        0.24          1.022        0.008
  YS02001770           JUNCTION        0.23          0.920        0.000
  YS02001774           JUNCTION        0.26          0.998        0.052
  YS02001779           JUNCTION        0.19          0.680        0.000
  YS02001783           JUNCTION        0.44          0.591        1.009
  YS02001784           JUNCTION        0.41          0.424        1.066
  YS02001786           JUNCTION        0.32          0.170        1.260
  YS02001882           JUNCTION        0.39          0.830        0.000
  YS02001884           JUNCTION        0.40          0.844        0.026
  YS02001887           JUNCTION        0.43          0.848        0.102
  YS02001890           JUNCTION        0.44          0.760        0.000
  YS02001895           JUNCTION        0.38          0.750        0.000
  YS02001898           JUNCTION        0.37          0.740        0.000
  YS02001901           JUNCTION        0.42          0.834        0.036
  YS02001904           JUNCTION        0.41          0.687        0.163
  YS02001907           JUNCTION        0.62          0.950        0.000
  YS02001910           JUNCTION        0.46          0.957        0.143
  YS02001915           JUNCTION        0.39          1.000        0.000
  YS02001918           JUNCTION        0.31          0.810        0.000
  YS02001920           JUNCTION        0.32          1.140        0.000
  YS02001923           JUNCTION        0.03          0.820        0.000
  YS02001926           JUNCTION        0.06          0.900        0.000
  YS02001929           JUNCTION        0.01          0.780        0.000
  YS02006553           JUNCTION        0.64          1.004        0.186
  YS02006556           JUNCTION        0.54          0.979        0.371
  YS02006558           JUNCTION        0.53          0.968        0.432
  YS02006561           JUNCTION        0.28          0.305        0.845
  YS02163301           JUNCTION        0.66          0.957        0.073
  YS02163601           JUNCTION        0.70          1.080        0.000
  YS02164001           JUNCTION        0.59          1.005        0.095
  
  
  *********************
  Node Flooding Summary
  *********************
  
  Flooding refers to all water that overflows a node, whether it ponds or not.
  --------------------------------------------------------------------------
                                                             Total   Maximum
                                 Maximum   Time of Max       Flood    Ponded
                        Hours       Rate    Occurrence      Volume     Depth
  Node                 Flooded       LPS   days hr:min    10^6 ltr    Meters
  --------------------------------------------------------------------------
  WS02006234              0.01     82.17      0  02:38       0.000     0.000
  WS02006235              0.01      9.23      0  02:29       0.000     0.000
  WS02006238              0.01      8.24      0  02:29       0.000     0.000
  WS02006239              0.01      5.81      0  02:32       0.000     0.000
  WS02006240              0.01     24.90      0  02:31       0.000     0.000
  WS02006242              0.01     34.14      0  02:32       0.000     0.000
  WS02006243              0.01     19.01      0  02:28       0.000     0.000
  WS02006245              0.01      4.47      0  02:29       0.000     0.000
  WS02006247              0.01      4.35      0  02:29       0.000     0.000
  WS02006248              0.11     25.03      0  02:12       0.005     0.000
  WS02006249              0.15     16.53      0  02:21       0.003     0.000
  WS02006252              0.01    245.63      0  00:00       0.000     0.000
  WS02006256              0.45    338.63      0  02:02       0.269     0.000
  YS02001580              0.01    112.37      0  02:06       0.000     0.000
  YS02001583              0.01     83.57      0  02:06       0.000     0.000
  YS02001586              0.37    300.79      0  02:15       0.203     0.000
  YS02001590              0.01      5.37      0  02:06       0.000     0.000
  YS02001600              0.01      1.50      0  02:06       0.000     0.000
  YS02001601              0.49   1063.98      0  02:14       0.967     0.000
  YS02001602              0.35     61.97      0  02:26       0.070     0.000
  YS02001605              0.01      4.78      0  02:06       0.000     0.000
  YS02001610              0.31    561.01      0  02:15       0.386     0.000
  YS02001616              0.01     12.30      0  02:06       0.000     0.000
  YS02001619              0.01      9.99      0  02:06       0.000     0.000
  YS02001625              0.26   1171.38      0  02:15       0.596     0.000
  YS02001629              0.08    221.42      0  02:13       0.038     0.000
  YS02001633              0.01      2.05      0  02:10       0.000     0.000
  YS02001644              0.10    722.03      0  02:13       0.147     0.000
  YS02001649              0.01     22.28      0  02:12       0.000     0.000
  YS02001770              0.01     21.21      0  02:11       0.000     0.000
  YS02001779              0.09    298.95      0  02:10       0.058     0.000
  YS02001882              0.01     35.62      0  02:08       0.000     0.000
  YS02001890              0.13    232.56      0  02:13       0.055     0.000
  YS02001895              0.01     18.14      0  02:08       0.000     0.000
  YS02001898              0.01     28.74      0  02:08       0.000     0.000
  YS02001907              0.27   1614.61      0  02:13       0.830     0.000
  YS02001915              0.01    113.95      0  02:08       0.000     0.000
  YS02001918              0.01    222.59      0  02:10       0.003     0.000
  YS02001920              0.01     88.49      0  02:10       0.000     0.000
  YS02001923              0.01    261.61      0  02:10       0.001     0.000
  YS02001926              0.01    157.26      0  02:10       0.001     0.000
  YS02001929              0.01    168.44      0  02:10       0.001     0.000
  YS02163601              0.01      4.57      0  02:11       0.000     0.000
  
  
  **********************
  Storage Volume Summary
  **********************
  
  ------------------------------------------------------------------------------------------------
                         Average    Avg   Evap  Exfil     Maximum    Max    Time of Max    Maximum
                          Volume   Pcnt   Pcnt   Pcnt      Volume   Pcnt     Occurrence    Outflow
  Storage Unit           1000 m³   Full   Loss   Loss     1000 m³   Full    days hr:min        LPS
  ------------------------------------------------------------------------------------------------
  CC-storage               0.789   12.3    0.0    0.0       2.260   35.3       0  02:37    1783.53
  JK-storage               0.005    1.9    0.0    0.0       0.150   51.6       0  00:00    2300.00
  
  
  ***********************
  Outfall Loading Summary
  ***********************
  
  -----------------------------------------------------------
                         Flow       Avg       Max       Total
                         Freq      Flow      Flow      Volume
  Outfall Node           Pcnt       LPS       LPS    10^6 ltr
  -----------------------------------------------------------
  CC-1                  43.04    683.00    683.00       4.319
  CC-2                  43.04    683.00    683.00       4.319
  JK-1                  12.02   1000.00   1000.00       1.587
  JK-2                  12.02   1000.00   1000.00       1.587
  WSC                   99.93    177.83    501.50       3.471
  -----------------------------------------------------------
  System                42.01   3543.83   3867.50      15.282
  
  
  ********************
  Link Flow Summary
  ********************
  
  -----------------------------------------------------------------------------
                                 Maximum  Time of Max   Maximum    Max/    Max/
                                  |Flow|   Occurrence   |Veloc|    Full    Full
  Link                 Type          LPS  days hr:min     m/sec    Flow   Depth
  -----------------------------------------------------------------------------
  1                    CONDUIT    501.50     0  02:31      2.75    0.17    0.28
  WS02003060WS02003069 CONDUIT    500.33     0  02:29      1.60    0.20    0.32
  WS02003066WSF200     CONDUIT    483.74     0  02:28      2.78    0.08    0.21
  WS02003067WS02003066 CONDUIT    483.78     0  02:28      1.14    0.16    0.40
  WS02003069WS02003072 CONDUIT    500.18     0  02:29      1.33    0.24    0.37
  WS02003072WS02003073 CONDUIT    499.90     0  02:30      1.38    1.08    0.36
  WS02004401WS02004402 CONDUIT    487.12     0  02:22      1.22    0.58    0.84
  WS02004402WS02004403 CONDUIT    488.72     0  02:22      1.24    0.70    0.87
  WS02004403WS02004404 CONDUIT    500.48     0  02:23      1.24    0.36    0.92
  WS02004404WS02004405 CONDUIT    543.82     0  02:25      1.45    5.33    0.94
  WS02004405WS02004406 CONDUIT    489.76     0  02:23      1.46    0.97    0.93
  WS02004406WS02004407 CONDUIT    486.02     0  02:26      0.98    0.22    0.60
  WS02004407WS02004409 CONDUIT    485.51     0  02:26      1.59    0.17    0.45
  WS02004409WS02004410 CONDUIT    484.80     0  02:26      1.06    0.63    0.64
  WS02004410WS02004411 CONDUIT    484.66     0  02:27      1.13    0.66    0.65
  WS02004411WS02004412 CONDUIT    484.29     0  02:27      1.20    0.69    0.66
  WS02004412WS02004413 CONDUIT    484.25     0  02:27      1.22    0.32    0.75
  WS02004413WS02003067 CONDUIT    483.66     0  02:28      1.05    0.21    0.57
  WS02006109WS02006110 CONDUIT    491.29     0  02:12      0.98    0.94    0.99
  WS02006110WS02006113 CONDUIT    491.84     0  02:18      1.19    0.45    0.77
  WS02006111WS02006112 CONDUIT    493.09     0  02:18      1.95    0.23    0.66
  WS02006112WS02006115 CONDUIT    496.69     0  02:19      0.82    0.29    0.86
  WS02006113WS02006111 CONDUIT    505.92     0  02:19      2.38    0.61    0.44
  WS02006115WS02006116 CONDUIT    488.79     0  02:19      1.29    0.63    0.73
  WS02006116WS02004401 CONDUIT    487.78     0  02:19      1.21    0.67    0.82
  WS02006228WS02006109 CONDUIT    489.98     0  02:12      1.06    2.14    1.00
  WS02006229WS02006228 CONDUIT    490.42     0  02:18      1.12    1.62    1.00
  WS02006230WS02006229 CONDUIT    489.82     0  02:12      1.27   10.90    1.00
  WS02006231WS02006230 CONDUIT    517.33     0  02:19      1.40    7.85    0.95
  WS02006232WS02006231 CONDUIT    546.77     0  02:29      1.42    1.15    1.00
  WS02006234WS02006232 CONDUIT    541.83     0  02:29      1.41    1.10    1.00
  WS02006235WS02006234 CONDUIT    558.81     0  02:38      1.45    5.90    1.00
  WS02006238WS02006235 CONDUIT    437.84     0  02:29      1.45    0.98    1.00
  WS02006239WS02006238 CONDUIT    430.64     0  02:39      1.16    1.38    1.00
  WS02006240WS02006239 CONDUIT    424.05     0  02:39      1.25    1.33    1.00
  WS02006242WS02006240 CONDUIT    416.83     0  02:39      1.16    1.66    1.00
  WS02006243WS02006242 CONDUIT    418.30     0  02:46      1.44    0.89    1.00
  WS02006245WS02006243 CONDUIT    418.96     0  02:35      1.44    1.24    1.00
  WS02006247WS02006245 CONDUIT    418.76     0  02:35      1.43    3.32    1.00
  WS02006248WS02006247 CONDUIT    418.74     0  02:35      1.44    0.91    1.00
  WS02006249WS02006248 CONDUIT    419.33     0  02:35      1.39    2.30    1.00
  WS02006251WS02006249 CONDUIT    481.41     0  02:00      1.99    1.39    1.00
  WS02006252WS02006251 CONDUIT    408.16     0  02:53      5.33    1.50    1.00
  WS02006256WS02006235 CONDUIT    288.91     0  00:00      4.23    3.06    1.00
  WSF200WS02003060     CONDUIT    484.05     0  02:28      2.01    0.11    0.27
  YS02001580YS02001583 CONDUIT    127.72     0  02:06      0.70    0.49    1.00
  YS02001583YS02001586 CONDUIT    164.75     0  02:06      0.69    0.25    1.00
  YS02001586YS02001590 CONDUIT    317.84     0  02:10      1.25    0.56    1.00
  YS02001590YS02001593 CONDUIT    317.94     0  02:28      1.12    2.00    1.00
  YS02001593YS02001596 CONDUIT    317.86     0  02:23      1.76    0.50    1.00
  YS02001596YS02001600 CONDUIT    318.00     0  02:10      1.24    0.62    1.00
  YS02001600YS02001601 CONDUIT    317.94     0  02:24      1.12    0.55    1.00
  YS02001601YS02001602 CONDUIT    521.80     0  02:06      1.85    1.88    1.00
  YS02001602YS02001605 CONDUIT    521.60     0  02:06      1.84   11.04    1.00
  YS02001605YS02001607 CONDUIT    521.55     0  02:06      1.84    2.86    1.00
  YS02001607YS02001610 CONDUIT    523.93     0  02:06      0.67    0.50    1.00
  YS02001610YS02001613 CONDUIT    525.83     0  02:06      0.67    0.61    1.00
  YS02001613YS02001616 CONDUIT    526.02     0  02:06      0.67    0.45    1.00
  YS02001616YS02001619 CONDUIT    514.13     0  02:06      0.68    0.89    1.00
  YS02001619YS02001622 CONDUIT    955.40     0  02:29      1.22    1.41    1.00
  YS02001622YS02001625 CONDUIT    955.03     0  02:29      1.22    0.51    1.00
  YS02001625YS02001629 CONDUIT    955.74     0  02:29      1.22    0.45    1.00
  YS02001629YS02163301 CONDUIT    956.29     0  02:29      1.22    1.18    1.00
  YS02001633YS02163601 CONDUIT   1400.71     0  02:09      1.78    1.47    1.00
  YS02001641YS02001644 CONDUIT   1397.54     0  02:09      1.78    4.52    1.00
  YS02001644YS02001647 CONDUIT   1831.80     0  02:09      2.33    1.08    1.00
  YS02001647YS02001649 CONDUIT   1846.43     0  02:09      2.35    0.97    1.00
  YS02001649YS02001757 CONDUIT   2124.29     0  02:09      2.71    1.29    1.00
  YS02001652YS02001649 CONDUIT    903.45     0  02:13      1.15    0.45    1.00
  YS02001655YS02001652 CONDUIT    903.14     0  02:13      1.30    0.44    1.00
  YS02001658YS02001655 CONDUIT    903.39     0  02:13      1.92    0.38    1.00
  YS02001661YS02001658 CONDUIT    902.60     0  02:13      2.36    0.35    1.00
  YS02001664YS02001661 CONDUIT    893.72     0  02:12      2.40    0.28    0.88
  YS02001745YS02001748 CONDUIT    592.34     0  02:12      2.25    0.23    1.00
  YS02001748YS02001751 CONDUIT    592.07     0  02:12      1.77    0.30    1.00
  YS02001751YS02001754 CONDUIT    591.22     0  02:12      1.44    0.28    1.00
  YS02001754YS02001757 CONDUIT    590.76     0  02:12      0.75    0.24    1.00
  YS02001757CaochengTiaoxuchi CONDUIT   3401.29     0  02:12      6.47    1.47    0.86
  YS02001759YS02001757 CONDUIT   1391.63     0  02:11      1.77    0.99    1.00
  YS02001762YS02001759 CONDUIT    803.84     0  02:16      1.02    0.93    1.00
  YS02001765YS02001762 CONDUIT    803.42     0  02:16      1.02    0.75    1.00
  YS02001767YS02001765 CONDUIT    803.10     0  02:16      1.02    1.01    1.00
  YS02001770YS02001767 CONDUIT    802.41     0  02:16      1.02    3.18    1.00
  YS02001774YS02001770 CONDUIT    350.91     0  02:10      0.45    0.22    1.00
  YS02001779YS02001774 CONDUIT    355.12     0  02:10      0.45    0.18    1.00
  YS02001783YS02001784 CONDUIT   1162.78     0  02:11      2.31    1.60    1.00
  YS02001784YS02001785 CONDUIT   1163.50     0  02:12      2.31    2.71    1.00
  YS02001786YS02001788 CONDUIT   1163.41     0  02:12      2.48    2.24    0.89
  YS02001788YS02001790 CONDUIT   1174.90     0  02:13      2.71    0.87    0.84
  YS02001790YS02001791 CONDUIT   1285.56     0  02:17      3.42    1.40    0.70
  YS02001791YS02001793 CONDUIT   1250.47     0  02:13      6.78    0.54    0.42
  YS02001793JiankangQianchi CONDUIT   1368.00     0  02:16     15.13    0.11    0.50
  YS02001882YS02001884 CONDUIT     60.74     0  02:07      0.09    0.07    1.00
  YS02001884YS02001887 CONDUIT     78.38     0  02:07      0.10    0.10    1.00
  YS02001887YS02001890 CONDUIT    745.94     0  02:13      0.95    1.28    1.00
  YS02001890YS02001895 CONDUIT    517.59     0  02:16      0.66    0.24    1.00
  YS02001895YS02001898 CONDUIT    517.55     0  02:16      0.66    0.90    1.00
  YS02001898YS02001901 CONDUIT    517.57     0  02:16      0.66    0.33    1.00
  YS02001901YS02001904 CONDUIT    517.90     0  02:16      0.66    0.80    1.00
  YS02001904YS02001907 CONDUIT    517.78     0  02:16      0.66    0.18    1.00
  YS02001907YS02006553 CONDUIT    798.66     0  02:27      0.89    0.94    1.00
  YS02001910YS02001907 CONDUIT   1283.03     0  02:13      1.63    0.72    1.00
  YS02001915YS02001910 CONDUIT   1283.32     0  02:13      1.63    0.64    1.00
  YS02001918YS02001915 CONDUIT    452.73     0  02:13      0.58    0.25    1.00
  YS02001920YS02001918 CONDUIT    452.40     0  02:13      0.66    0.44    1.00
  YS02001923YS02001920 CONDUIT    449.07     0  02:13      0.69    0.20    1.00
  YS02001926YS02001923 CONDUIT    445.20     0  02:13      0.96    0.64    1.00
  YS02001929YS02001926 CONDUIT    442.35     0  02:13      1.13    0.21    1.00
  YS02006553YS02006556 CONDUIT    799.56     0  02:27      1.02    0.68    1.00
  YS02006556YS02006558 CONDUIT    800.25     0  02:27      1.02    0.63    1.00
  YS02006558YS02006561 CONDUIT   1185.28     0  02:09      4.19    2.62    1.00
  YS02006561YS02001783 CONDUIT   1162.27     0  02:11      2.31    0.60    1.00
  YS02163301YS02001633 CONDUIT    956.16     0  02:29      1.22    0.90    1.00
  YS02163601YS02164001 CONDUIT   1400.19     0  02:09      1.78    1.24    1.00
  YS02164001YS02001641 CONDUIT   1398.52     0  02:09      1.78    1.91    1.00
  CC-R1                PUMP       683.00     0  00:00              1.00
  CC-R2                PUMP       683.00     0  00:00              1.00
  CC-S1                PUMP       200.00     0  00:00              1.00
  CC-S2                PUMP       200.00     0  00:00              1.00
  JK-R1                PUMP      1000.00     0  00:00              1.00
  JK-R2                PUMP      1000.00     0  00:00              1.00
  JK-S                 PUMP       300.00     0  00:00              1.00
  
  
  ***************************
  Flow Classification Summary
  ***************************
  
  -------------------------------------------------------------------------------------
                      Adjusted    ---------- Fraction of Time in Flow Class ---------- 
                       /Actual         Up    Down  Sub   Sup   Up    Down  Norm  Inlet 
  Conduit               Length    Dry  Dry   Dry   Crit  Crit  Crit  Crit  Ltd   Ctrl  
  -------------------------------------------------------------------------------------
  1                       1.00   0.00  0.00  0.00  0.00  1.00  0.00  0.00  0.57  0.00
  WS02003060WS02003069    1.00   0.00  0.00  0.00  0.97  0.03  0.00  0.00  0.80  0.00
  WS02003066WSF200        1.00   0.05  0.00  0.00  0.00  0.95  0.00  0.00  0.92  0.00
  WS02003067WS02003066    1.00   0.05  0.00  0.00  0.95  0.00  0.00  0.00  0.00  0.00
  WS02003069WS02003072    1.00   0.00  0.00  0.00  0.99  0.01  0.00  0.00  0.83  0.00
  WS02003072WS02003073    1.00   0.00  0.00  0.00  0.00  0.00  0.00  1.00  0.00  0.00
  WS02004401WS02004402    1.00   0.02  0.00  0.00  0.98  0.00  0.00  0.00  0.00  0.00
  WS02004402WS02004403    1.00   0.02  0.00  0.00  0.98  0.00  0.00  0.00  0.00  0.00
  WS02004403WS02004404    1.00   0.00  0.03  0.00  0.97  0.00  0.00  0.00  0.00  0.00
  WS02004404WS02004405    1.00   0.00  0.00  0.00  1.00  0.00  0.00  0.00  0.01  0.00
  WS02004405WS02004406    1.00   0.00  0.00  0.00  1.00  0.00  0.00  0.00  0.00  0.00
  WS02004406WS02004407    1.00   0.00  0.03  0.00  0.97  0.00  0.00  0.00  0.00  0.00
  WS02004407WS02004409    1.00   0.03  0.00  0.00  0.95  0.01  0.00  0.00  0.96  0.00
  WS02004409WS02004410    1.00   0.03  0.00  0.00  0.96  0.00  0.00  0.00  0.00  0.00
  WS02004410WS02004411    1.00   0.04  0.00  0.00  0.96  0.00  0.00  0.00  0.00  0.00
  WS02004411WS02004412    1.00   0.04  0.00  0.00  0.96  0.00  0.00  0.00  0.00  0.00
  WS02004412WS02004413    1.00   0.04  0.00  0.00  0.96  0.00  0.00  0.00  0.00  0.00
  WS02004413WS02003067    1.00   0.04  0.01  0.00  0.00  0.00  0.95  0.00  0.00  0.00
  WS02006109WS02006110    1.00   0.00  0.01  0.00  0.98  0.00  0.01  0.00  0.00  0.00
  WS02006110WS02006113    1.00   0.01  0.01  0.00  0.98  0.00  0.00  0.00  0.00  0.00
  WS02006111WS02006112    1.00   0.02  0.00  0.00  0.98  0.00  0.00  0.00  0.98  0.00
  WS02006112WS02006115    1.00   0.02  0.00  0.00  0.97  0.00  0.00  0.00  0.00  0.00
  WS02006113WS02006111    1.00   0.02  0.00  0.00  0.00  0.98  0.00  0.00  0.10  0.00
  WS02006115WS02006116    1.00   0.02  0.00  0.00  0.97  0.00  0.00  0.01  0.00  0.00
  WS02006116WS02004401    1.00   0.02  0.00  0.00  0.98  0.00  0.00  0.00  0.00  0.00
  WS02006228WS02006109    1.00   0.00  0.00  0.00  1.00  0.00  0.00  0.00  0.00  0.00
  WS02006229WS02006228    1.00   0.00  0.00  0.00  0.99  0.00  0.00  0.01  0.00  0.00
  WS02006230WS02006229    1.00   0.00  0.00  0.00  0.99  0.00  0.00  0.01  0.02  0.00
  WS02006231WS02006230    1.00   0.00  0.00  0.00  0.18  0.00  0.82  0.00  0.00  0.00
  WS02006232WS02006231    1.00   0.00  0.00  0.00  0.99  0.00  0.01  0.00  0.00  0.00
  WS02006234WS02006232    1.00   0.00  0.00  0.00  1.00  0.00  0.00  0.00  0.19  0.00
  WS02006235WS02006234    1.00   0.00  0.00  0.00  0.58  0.00  0.42  0.00  0.00  0.00
  WS02006238WS02006235    1.00   0.00  0.00  0.00  1.00  0.00  0.00  0.00  0.01  0.00
  WS02006239WS02006238    1.00   0.00  0.00  0.00  1.00  0.00  0.00  0.00  0.37  0.00
  WS02006240WS02006239    1.00   0.00  0.00  0.00  0.48  0.00  0.00  0.52  0.04  0.00
  WS02006242WS02006240    1.00   0.00  0.00  0.00  0.99  0.00  0.01  0.00  0.00  0.00
  WS02006243WS02006242    1.00   0.00  0.00  0.00  0.99  0.00  0.00  0.01  0.72  0.00
  WS02006245WS02006243    1.00   0.00  0.00  0.00  0.47  0.00  0.00  0.53  0.01  0.00
  WS02006247WS02006245    1.00   0.00  0.00  0.00  0.99  0.00  0.00  0.01  0.00  0.00
  WS02006248WS02006247    1.00   0.00  0.00  0.00  0.99  0.00  0.00  0.01  0.23  0.00
  WS02006249WS02006248    1.00   0.00  0.00  0.00  0.28  0.00  0.72  0.00  0.00  0.00
  WS02006251WS02006249    1.00   0.00  0.00  0.00  0.99  0.00  0.00  0.00  0.73  0.00
  WS02006252WS02006251    1.00   0.00  0.25  0.00  0.05  0.00  0.70  0.00  0.00  0.00
  WS02006256WS02006235    1.00   0.00  0.00  0.00  0.99  0.01  0.00  0.00  0.01  0.00
  WSF200WS02003060        1.00   0.00  0.05  0.00  0.53  0.42  0.00  0.00  0.76  0.00
  YS02001580YS02001583    1.00   0.26  0.57  0.00  0.17  0.00  0.00  0.00  0.66  0.00
  YS02001583YS02001586    1.00   0.42  0.35  0.00  0.23  0.00  0.00  0.00  0.66  0.00
  YS02001586YS02001590    1.00   0.13  0.00  0.00  0.42  0.05  0.00  0.41  0.38  0.00
  YS02001590YS02001593    1.00   0.13  0.01  0.00  0.09  0.00  0.77  0.00  0.00  0.00
  YS02001593YS02001596    1.00   0.14  0.00  0.00  0.11  0.01  0.00  0.74  0.02  0.00
  YS02001596YS02001600    1.00   0.14  0.00  0.00  0.17  0.01  0.00  0.67  0.05  0.00
  YS02001600YS02001601    1.00   0.13  0.01  0.00  0.86  0.00  0.00  0.00  0.62  0.00
  YS02001601YS02001602    1.00   0.13  0.01  0.00  0.86  0.00  0.00  0.00  0.00  0.00
  YS02001602YS02001605    1.00   0.14  0.00  0.00  0.86  0.00  0.00  0.00  0.00  0.00
  YS02001605YS02001607    1.00   0.14  0.00  0.00  0.86  0.00  0.00  0.00  0.00  0.00
  YS02001607YS02001610    1.00   0.13  0.01  0.00  0.86  0.00  0.00  0.00  0.02  0.00
  YS02001610YS02001613    1.00   0.13  0.00  0.00  0.87  0.00  0.00  0.00  0.01  0.00
  YS02001613YS02001616    1.00   0.13  0.00  0.00  0.87  0.00  0.00  0.00  0.01  0.00
  YS02001616YS02001619    1.00   0.13  0.00  0.00  0.87  0.00  0.00  0.00  0.00  0.00
  YS02001619YS02001622    1.00   0.13  0.00  0.00  0.87  0.00  0.00  0.00  0.28  0.00
  YS02001622YS02001625    1.00   0.13  0.00  0.00  0.87  0.00  0.00  0.00  0.06  0.00
  YS02001625YS02001629    1.00   0.13  0.06  0.00  0.13  0.00  0.68  0.00  0.00  0.00
  YS02001629YS02163301    1.00   0.17  0.01  0.00  0.82  0.00  0.00  0.00  0.00  0.00
  YS02001633YS02163601    1.00   0.00  0.01  0.00  0.99  0.00  0.00  0.00  0.16  0.00
  YS02001641YS02001644    1.00   0.00  0.01  0.00  0.99  0.00  0.00  0.00  0.00  0.00
  YS02001644YS02001647    1.00   0.00  0.19  0.00  0.81  0.00  0.00  0.00  0.00  0.00
  YS02001647YS02001649    1.00   0.00  0.19  0.00  0.48  0.33  0.00  0.00  0.57  0.00
  YS02001649YS02001757    1.00   0.00  0.00  0.00  0.64  0.36  0.00  0.00  0.54  0.00
  YS02001652YS02001649    1.00   0.00  0.00  0.00  0.96  0.04  0.00  0.00  0.77  0.00
  YS02001655YS02001652    1.00   0.00  0.00  0.00  0.15  0.01  0.00  0.83  0.08  0.00
  YS02001658YS02001655    1.00   0.00  0.15  0.00  0.59  0.26  0.00  0.00  0.75  0.00
  YS02001661YS02001658    1.00   0.15  0.00  0.00  0.43  0.42  0.00  0.00  0.73  0.00
  YS02001664YS02001661    1.00   0.13  0.00  0.00  0.76  0.11  0.00  0.00  0.86  0.00
  YS02001745YS02001748    1.00   0.00  0.00  0.00  0.03  0.01  0.00  0.96  0.02  0.00
  YS02001748YS02001751    1.00   0.00  0.00  0.00  0.76  0.24  0.00  0.00  0.82  0.00
  YS02001751YS02001754    1.00   0.00  0.00  0.00  0.09  0.01  0.00  0.90  0.04  0.00
  YS02001754YS02001757    1.00   0.00  0.00  0.00  1.00  0.00  0.00  0.00  0.88  0.00
  YS02001757CaochengTiaoxuchi    1.00   0.00  0.00  0.00  0.67  0.33  0.00  0.00  0.75  0.00
  YS02001759YS02001757    1.00   0.00  0.00  0.00  1.00  0.00  0.00  0.00  0.63  0.00
  YS02001762YS02001759    1.00   0.00  0.00  0.00  1.00  0.00  0.00  0.00  0.05  0.00
  YS02001765YS02001762    1.00   0.00  0.00  0.00  1.00  0.00  0.00  0.00  0.76  0.00
  YS02001767YS02001765    1.00   0.00  0.00  0.00  1.00  0.00  0.00  0.00  0.00  0.00
  YS02001770YS02001767    1.00   0.00  0.00  0.00  1.00  0.00  0.00  0.00  0.00  0.00
  YS02001774YS02001770    1.00   0.00  0.14  0.00  0.70  0.00  0.16  0.00  0.04  0.00
  YS02001779YS02001774    1.00   0.00  0.00  0.00  1.00  0.00  0.00  0.00  0.81  0.00
  YS02001783YS02001784    1.00   0.00  0.20  0.00  0.80  0.00  0.00  0.00  0.55  0.00
  YS02001784YS02001785    1.00   0.00  0.00  0.00  1.00  0.00  0.00  0.00  0.18  0.00
  YS02001786YS02001788    1.00   0.00  0.00  0.00  0.80  0.20  0.00  0.00  0.00  0.00
  YS02001788YS02001790    1.00   0.00  0.00  0.00  0.23  0.77  0.00  0.00  0.82  0.00
  YS02001790YS02001791    1.00   0.00  0.00  0.00  0.01  0.99  0.00  0.00  0.15  0.00
  YS02001791YS02001793    1.00   0.00  0.00  0.00  0.00  1.00  0.00  0.00  0.01  0.00
  YS02001793JiankangQianchi    1.00   0.00  0.00  0.00  0.46  0.54  0.00  0.00  0.79  0.00
  YS02001882YS02001884    1.00   0.16  0.01  0.00  0.83  0.00  0.00  0.00  0.00  0.00
  YS02001884YS02001887    1.00   0.06  0.05  0.00  0.89  0.00  0.00  0.00  0.00  0.00
  YS02001887YS02001890    1.00   0.00  0.00  0.00  0.97  0.00  0.03  0.00  0.00  0.00
  YS02001890YS02001895    1.00   0.00  0.18  0.00  0.82  0.00  0.00  0.00  0.00  0.00
  YS02001895YS02001898    1.00   0.18  0.00  0.00  0.80  0.00  0.02  0.00  0.00  0.00
  YS02001898YS02001901    1.00   0.18  0.00  0.00  0.82  0.00  0.00  0.00  0.01  0.00
  YS02001901YS02001904    1.00   0.18  0.00  0.00  0.82  0.00  0.00  0.00  0.00  0.00
  YS02001904YS02001907    1.00   0.00  0.17  0.00  0.82  0.00  0.00  0.00  0.00  0.00
  YS02001907YS02006553    1.00   0.00  0.02  0.00  0.98  0.00  0.00  0.00  0.00  0.00
  YS02001910YS02001907    1.00   0.00  0.00  0.00  0.97  0.00  0.00  0.03  0.12  0.00
  YS02001915YS02001910    1.00   0.00  0.00  0.00  0.96  0.04  0.00  0.00  0.17  0.00
  YS02001918YS02001915    1.00   0.00  0.01  0.00  0.98  0.02  0.00  0.00  0.77  0.00
  YS02001920YS02001918    1.00   0.00  0.01  0.00  0.99  0.00  0.00  0.00  0.00  0.00
  YS02001923YS02001920    1.00   0.00  0.00  0.00  1.00  0.00  0.00  0.00  0.94  0.00
  YS02001926YS02001923    1.00   0.00  0.07  0.00  0.05  0.00  0.88  0.00  0.00  0.00
  YS02001929YS02001926    1.00   0.00  0.13  0.00  0.87  0.00  0.00  0.00  0.83  0.00
  YS02006553YS02006556    1.00   0.01  0.00  0.00  0.99  0.00  0.00  0.00  0.03  0.00
  YS02006556YS02006558    1.00   0.00  0.00  0.00  1.00  0.00  0.00  0.00  0.00  0.00
  YS02006558YS02006561    1.00   0.20  0.00  0.00  0.05  0.76  0.00  0.00  0.19  0.00
  YS02006561YS02001783    1.00   0.20  0.00  0.00  0.07  0.73  0.00  0.00  0.69  0.00
  YS02163301YS02001633    1.00   0.00  0.17  0.00  0.83  0.00  0.00  0.00  0.00  0.00
  YS02163601YS02164001    1.00   0.00  0.08  0.00  0.92  0.00  0.00  0.00  0.00  0.00
  YS02164001YS02001641    1.00   0.01  0.08  0.00  0.92  0.00  0.00  0.00  0.06  0.00
  
  
  *************************
  Conduit Surcharge Summary
  *************************
  
  ----------------------------------------------------------------------------
                                                           Hours        Hours 
                         --------- Hours Full --------   Above Full   Capacity
  Conduit                Both Ends  Upstream  Dnstream   Normal Flow   Limited
  ----------------------------------------------------------------------------
  WS02003072WS02003073        0.01      0.01      0.01      0.49         0.01
  WS02004404WS02004405        0.01      0.01      0.01      1.99         0.01
  WS02006109WS02006110        0.01      0.01      1.32      0.01         0.01
  WS02006110WS02006113        0.01      0.01      1.29      0.01         0.01
  WS02006111WS02006112        0.01      0.01      1.36      0.01         0.01
  WS02006112WS02006115        0.01      0.01      0.25      0.01         0.01
  WS02006228WS02006109        1.24      1.32      1.24      1.58         1.24
  WS02006229WS02006228        1.23      1.25      1.23      1.49         1.23
  WS02006230WS02006229        1.39      1.43      1.39      2.53         1.39
  WS02006231WS02006230        0.01      0.01      0.17      2.19         0.01
  WS02006232WS02006231        0.07      0.07      1.34      0.17         0.01
  WS02006234WS02006232        0.97      0.97      1.34      0.07         0.25
  WS02006235WS02006234        0.53      0.57      1.12      2.00         0.14
  WS02006238WS02006235        1.23      1.23      1.35      0.01         0.07
  WS02006239WS02006238        1.28      1.33      1.28      1.48         1.04
  WS02006240WS02006239        1.22      1.27      1.22      1.49         1.03
  WS02006242WS02006240        1.25      1.25      1.41      1.60         0.03
  WS02006243WS02006242        1.29      1.29      1.37      0.01         0.19
  WS02006245WS02006243        1.27      1.28      1.27      1.59         1.04
  WS02006247WS02006245        1.27      1.31      1.27      1.75         1.17
  WS02006248WS02006247        1.27      1.27      1.29      0.01         0.30
  WS02006249WS02006248        1.26      1.26      1.28      1.73         0.01
  WS02006251WS02006249        1.28      1.29      1.28      1.70         0.97
  WS02006252WS02006251        1.76      1.76      1.76      1.76         0.01
  WS02006256WS02006235        1.71      2.07      4.03      0.41         0.07
  YS02001580YS02001583        0.47      0.47      0.49      0.01         0.01
  YS02001583YS02001586        0.48      0.48      0.56      0.01         0.01
  YS02001586YS02001590        0.57      0.57      0.63      0.01         0.01
  YS02001590YS02001593        0.63      0.63      0.64      0.67         0.01
  YS02001593YS02001596        0.64      0.64      0.73      0.01         0.01
  YS02001596YS02001600        0.77      0.77      0.86      0.01         0.01
  YS02001600YS02001601        0.92      0.92      1.20      0.01         0.01
  YS02001601YS02001602        1.10      1.10      1.24      0.88         0.01
  YS02001602YS02001605        1.04      1.04      1.10      2.07         0.01
  YS02001605YS02001607        0.99      1.04      0.99      1.17         0.99
  YS02001607YS02001610        0.56      0.56      0.59      0.01         0.01
  YS02001610YS02001613        0.56      0.56      0.59      0.01         0.01
  YS02001613YS02001616        0.52      0.52      0.56      0.01         0.01
  YS02001616YS02001619        0.50      0.50      0.52      0.01         0.01
  YS02001619YS02001622        0.50      0.50      0.50      0.66         0.48
  YS02001622YS02001625        0.50      0.50      0.67      0.01         0.01
  YS02001625YS02001629        0.41      0.41      0.67      0.01         0.01
  YS02001629YS02163301        0.65      0.65      0.66      0.31         0.29
  YS02001633YS02163601        0.68      0.68      0.70      0.41         0.41
  YS02001641YS02001644        0.51      0.57      0.51      1.28         0.50
  YS02001644YS02001647        0.30      0.30      0.51      0.05         0.01
  YS02001647YS02001649        0.30      0.30      0.33      0.01         0.01
  YS02001649YS02001757        0.31      0.33      0.31      0.34         0.23
  YS02001652YS02001649        0.25      0.25      0.33      0.01         0.01
  YS02001655YS02001652        0.17      0.17      0.24      0.01         0.01
  YS02001658YS02001655        0.11      0.11      0.18      0.01         0.01
  YS02001661YS02001658        0.01      0.01      0.11      0.01         0.01
  YS02001664YS02001661        0.01      0.01      0.03      0.01         0.01
  YS02001745YS02001748        0.01      0.01      0.04      0.01         0.01
  YS02001748YS02001751        0.09      0.09      0.13      0.01         0.01
  YS02001751YS02001754        0.13      0.13      0.17      0.01         0.01
  YS02001754YS02001757        0.19      0.19      0.31      0.01         0.01
  YS02001757CaochengTiaoxuchi        0.01      0.31      0.01      0.41         0.01
  YS02001759YS02001757        0.27      0.27      0.31      0.01         0.02
  YS02001762YS02001759        0.27      0.27      0.27      0.01         0.02
  YS02001765YS02001762        0.25      0.25      0.27      0.01         0.01
  YS02001767YS02001765        0.23      0.24      0.25      0.01         0.04
  YS02001770YS02001767        0.24      0.24      0.24      0.48         0.23
  YS02001774YS02001770        0.23      0.23      0.26      0.01         0.01
  YS02001779YS02001774        0.19      0.19      0.26      0.01         0.01
  YS02001783YS02001784        0.41      0.44      0.41      0.57         0.41
  YS02001784YS02001785        0.32      0.41      0.32      0.75         0.32
  YS02001786YS02001788        0.01      0.32      0.01      0.65         0.01
  YS02001790YS02001791        0.01      0.01      0.01      0.40         0.01
  YS02001882YS02001884        0.39      0.39      0.40      0.01         0.01
  YS02001884YS02001887        0.42      0.42      0.43      0.01         0.01
  YS02001887YS02001890        0.44      0.44      0.45      0.08         0.01
  YS02001890YS02001895        0.38      0.38      0.47      0.01         0.01
  YS02001895YS02001898        0.37      0.37      0.38      0.01         0.01
  YS02001898YS02001901        0.38      0.38      0.42      0.01         0.01
  YS02001901YS02001904        0.41      0.41      0.42      0.01         0.01
  YS02001904YS02001907        0.41      0.41      0.64      0.01         0.01
  YS02001907YS02006553        0.76      0.76      0.82      0.01         0.01
  YS02001910YS02001907        0.46      0.46      0.62      0.01         0.01
  YS02001915YS02001910        0.39      0.39      0.46      0.01         0.01
  YS02001918YS02001915        0.31      0.31      0.39      0.01         0.01
  YS02001920YS02001918        0.31      0.31      0.32      0.01         0.01
  YS02001923YS02001920        0.27      0.27      0.32      0.01         0.01
  YS02001926YS02001923        0.03      0.03      0.06      0.01         0.01
  YS02001929YS02001926        0.01      0.01      0.06      0.01         0.01
  YS02006553YS02006556        0.54      0.54      0.64      0.01         0.01
  YS02006556YS02006558        0.59      0.59      0.65      0.01         0.01
  YS02006558YS02006561        0.34      0.53      0.34      0.71         0.34
  YS02006561YS02001783        0.28      0.28      0.44      0.01         0.01
  YS02163301YS02001633        0.66      0.66      0.70      0.01         0.02
  YS02163601YS02164001        0.59      0.59      0.70      0.26         0.01
  YS02164001YS02001641        0.57      0.59      0.57      0.64         0.46
  
  
  ***************
  Pumping Summary
  ***************
  
  ---------------------------------------------------------------------------------------------------------
                                                  Min       Avg       Max     Total     Power    % Time Off
                        Percent   Number of      Flow      Flow      Flow    Volume     Usage    Pump Curve
  Pump                 Utilized   Start-Ups       LPS       LPS       LPS  10^6 ltr     Kw-hr    Low   High
  ---------------------------------------------------------------------------------------------------------
  CC-R1                   22.19           5      0.00    683.00    683.00     4.319     70.17    0.0  100.0
  CC-R2                   22.19           5      0.00    683.00    683.00     4.319     70.17    0.0  100.0
  CC-S1                   22.19           5      0.00    200.00    200.00     1.265      9.88    0.0   34.0
  CC-S2                   22.19           5      0.00    200.00    200.00     1.265      9.88    0.0   34.0
  JK-R1                    5.67         235      0.00   1000.00   1000.00     1.616      4.38    0.0    0.0
  JK-R2                    5.67         235      0.00   1000.00   1000.00     1.616      4.38    0.0    0.0
  JK-S                     5.67         235      0.00    300.00    300.00     0.485     10.93    0.0    0.0
  

  Analysis begun on:  Tue Apr 22 10:15:16 2025
  Analysis ended on:  Tue Apr 22 10:15:17 2025
  Total elapsed time: 00:00:01