
  EPA STORM WATER MANAGEMENT MODEL - VERSION 5.2 (Build 5.2.4)
  PYSWMM TOOLKIT API - VERSION v1.0 (2023-11-27)
  ------------------------------------------------------------

  WARNING 04: minimum elevation drop used for Conduit WS02004404WS02004405
  WARNING 03: negative offset ignored for Link YS02001904YS02001907
  
  ****************
  Analysis Options
  ****************
  Flow Units ............... LPS
  Process Models:
    Rainfall/Runoff ........ YES
    RDII ................... NO
    Snowmelt ............... NO
    Groundwater ............ NO
    Flow Routing ........... YES
    Ponding Allowed ........ NO
    Water Quality .......... NO
  Infiltration Method ...... HORTON
  Flow Routing Method ...... DYNWAVE
  Surcharge Method ......... EXTRAN
  Starting Date ............ 08/28/2015 08:00:00
  Ending Date .............. 08/28/2015 16:00:00
  Antecedent Dry Days ...... 8.0
  Report Time Step ......... 00:01:00
  Wet Time Step ............ 00:01:00
  Dry Time Step ............ 00:01:00
  Routing Time Step ........ 30.00 sec
  Variable Time Step ....... YES
  Maximum Trials ........... 8
  Number of Threads ........ 4
  Head Tolerance ........... 0.001500 m
  
  
  **************************        Volume         Depth
  Runoff Quantity Continuity     hectare-m            mm
  **************************     ---------       -------
  Total Precipitation ......         3.501       105.562
  Evaporation Loss .........         0.000         0.000
  Infiltration Loss ........         0.105         3.152
  Surface Runoff ...........         3.365       101.438
  Final Storage ............         0.033         0.998
  Continuity Error (%) .....        -0.025
  
  
  **************************        Volume        Volume
  Flow Routing Continuity        hectare-m      10^6 ltr
  **************************     ---------     ---------
  Dry Weather Inflow .......         0.025         0.248
  Wet Weather Inflow .......         3.364        33.644
  Groundwater Inflow .......         0.000         0.000
  RDII Inflow ..............         0.000         0.000
  External Inflow ..........         0.083         0.825
  External Outflow .........         2.208        22.082
  Flooding Loss ............         1.458        14.578
  Evaporation Loss .........         0.000         0.000
  Exfiltration Loss ........         0.000         0.000
  Initial Stored Volume ....         0.243         2.431
  Final Stored Volume ......         0.067         0.670
  Continuity Error (%) .....        -0.490
  
  
  *************************
  Highest Continuity Errors
  *************************
  Node WS02006256 (-13.07%)
  Node YS02001884 (5.25%)
  Node YS02001583 (-5.25%)
  
  
  ***************************
  Time-Step Critical Elements
  ***************************
  Link YS02001793JiankangQianchi (24.29%)
  Link WS02006238WS02006235 (18.36%)
  Link WS02004404WS02004405 (17.96%)
  Link WS02003066WSF200 (12.06%)
  Link WS02006235WS02006234 (7.10%)
  
  
  ********************************
  Highest Flow Instability Indexes
  ********************************
  Link WS02006229WS02006228 (41)
  Link WS02006113WS02006111 (40)
  Link WS02006252WS02006251 (32)
  Link WS02006228WS02006109 (29)
  Link YS02001602YS02001605 (27)
  
  
  *********************************
  Most Frequent Nonconverging Nodes
  *********************************
  Node CC-1 (41.08%)
  Node CC-2 (41.08%)
  Node JK-1 (41.08%)
  Node JK-2 (41.08%)
  Node WSC (41.08%)
  
  
  *************************
  Routing Time Step Summary
  *************************
  Minimum Time Step           :     0.02 sec
  Average Time Step           :     2.87 sec
  Maximum Time Step           :     6.43 sec
  % of Time in Steady State   :     0.00
  Average Iterations per Step :     4.79
  % of Steps Not Converging   :    41.08
  Time Step Frequencies       :
     30.000 - 13.228 sec      :     0.00 %
     13.228 -  5.833 sec      :    15.36 %
      5.833 -  2.572 sec      :    27.03 %
      2.572 -  1.134 sec      :    43.32 %
      1.134 -  0.500 sec      :    14.29 %
  
  
  ***************************
  Subcatchment Runoff Summary
  ***************************
  
  ------------------------------------------------------------------------------------------------------------------------------
                            Total      Total      Total      Total     Imperv       Perv      Total       Total     Peak  Runoff
                           Precip      Runon       Evap      Infil     Runoff     Runoff     Runoff      Runoff   Runoff   Coeff
  Subcatchment                 mm         mm         mm         mm         mm         mm         mm    10^6 ltr      LPS
  ------------------------------------------------------------------------------------------------------------------------------
  sub60                    105.56       0.00       0.00       1.88      91.71      10.79     102.49        1.35   978.52   0.971
  sub61                    105.56       0.00       0.00       2.73      86.50      15.22     101.72        1.87  1362.26   0.964
  sub62                    105.56       0.00       0.00       1.25      95.84       7.19     103.04        2.82  1923.98   0.976
  sub63                    105.56       0.00       0.00       5.04      73.99      25.58      99.57        2.26  1552.64   0.943
  sub64                    105.56       0.00       0.00       2.55      88.53      13.29     101.82        2.45  1591.38   0.965
  sub65                    105.56       0.00       0.00       2.21      90.59      11.52     102.11        2.81  1780.43   0.967
  sub66                    105.56       0.00       0.00       6.27      73.88      24.35      98.22        4.58  2407.28   0.930
  sub67                    105.56       0.00       0.00       1.20      95.89       7.24     103.13        1.92  1470.44   0.977
  sub68                    105.56       0.00       0.00       2.26      89.61      12.52     102.13        2.81  1967.70   0.967
  sub69                    105.56       0.00       0.00       2.04      89.62      13.80     103.42        3.83  2364.61   0.980
  sub70                    105.56       0.00       0.00       6.85      69.51      29.04      98.55        2.85  1348.34   0.934
  sub71                    105.56       0.00       0.00       1.29      95.80       7.16     102.96        2.69  1715.17   0.975
  sub72                    105.56       0.00       0.00       1.15      96.77       6.24     103.02        1.42   833.74   0.976
  
  
  ******************
  Node Depth Summary
  ******************
  
  ---------------------------------------------------------------------------------
                                 Average  Maximum  Maximum  Time of Max    Reported
                                   Depth    Depth      HGL   Occurrence   Max Depth
  Node                 Type       Meters   Meters   Meters  days hr:min      Meters
  ---------------------------------------------------------------------------------
  WS02003060           JUNCTION     0.22     0.36     5.30     0  02:19        0.36
  WS02003066           JUNCTION     0.18     0.29     5.84     0  02:18        0.29
  WS02003067           JUNCTION     0.48     0.68     6.00     0  02:18        0.68
  WS02003069           JUNCTION     0.25     0.41     4.99     0  02:19        0.41
  WS02003072           JUNCTION     0.31     0.48     4.85     0  02:20        0.48
  WS02003073           JUNCTION     0.17     0.28     4.35     0  02:20        0.28
  WS02004401           JUNCTION     0.58     0.83     6.83     0  02:15        0.83
  WS02004402           JUNCTION     0.61     0.86     6.82     0  02:13        0.86
  WS02004403           JUNCTION     0.63     0.88     6.81     0  02:14        0.88
  WS02004404           JUNCTION     0.71     0.96     6.81     0  02:14        0.96
  WS02004405           JUNCTION     0.70     0.93     6.78     0  02:20        0.93
  WS02004406           JUNCTION     0.71     0.93     6.76     0  02:16        0.93
  WS02004407           JUNCTION     0.17     0.28     6.59     0  02:16        0.28
  WS02004409           JUNCTION     0.38     0.63     6.40     0  02:17        0.63
  WS02004410           JUNCTION     0.40     0.65     6.37     0  02:17        0.65
  WS02004411           JUNCTION     0.42     0.66     6.34     0  02:17        0.66
  WS02004412           JUNCTION     0.44     0.67     6.31     0  02:17        0.67
  WS02004413           JUNCTION     0.59     0.83     6.30     0  02:18        0.83
  WS02006109           JUNCTION     0.65     0.92     7.54     0  01:53        0.92
  WS02006110           JUNCTION     0.65     0.89     7.47     0  02:14        0.89
  WS02006111           JUNCTION     0.18     0.27     6.98     0  01:54        0.27
  WS02006112           JUNCTION     0.75     1.02     6.91     0  02:09        1.02
  WS02006113           JUNCTION     0.27     0.43     7.33     0  01:54        0.43
  WS02006115           JUNCTION     0.47     0.73     6.86     0  02:15        0.72
  WS02006116           JUNCTION     0.56     0.81     6.85     0  02:15        0.81
  WS02006228           JUNCTION     0.65     0.96     7.61     0  02:14        0.95
  WS02006229           JUNCTION     0.62     0.95     7.65     0  02:14        0.94
  WS02006230           JUNCTION     0.63     1.02     7.77     0  02:14        1.01
  WS02006231           JUNCTION     0.42     1.15     8.27     0  02:17        0.76
  WS02006232           JUNCTION     0.55     1.81     8.85     0  02:51        1.50
  WS02006234           JUNCTION     0.49     1.96     9.12     0  02:12        1.83
  WS02006235           JUNCTION     0.53     2.00     9.16     0  01:48        2.00
  WS02006238           JUNCTION     0.56     2.15     9.29     0  02:10        2.15
  WS02006239           JUNCTION     0.54     2.03     9.24     0  02:12        2.03
  WS02006240           JUNCTION     0.52     2.10     9.39     0  02:12        2.10
  WS02006242           JUNCTION     0.59     1.55     8.82     0  01:48        1.55
  WS02006243           JUNCTION     0.53     1.48     8.90     0  01:53        1.48
  WS02006245           JUNCTION     0.53     1.56     9.04     0  01:57        1.56
  WS02006247           JUNCTION     0.55     1.47     8.97     0  01:57        1.47
  WS02006248           JUNCTION     0.53     1.10     8.69     0  01:48        1.10
  WS02006249           JUNCTION     0.55     1.09     8.69     0  01:48        1.09
  WS02006251           JUNCTION     0.56     1.20     8.87     0  02:05        1.16
  WS02006252           JUNCTION     0.35     1.50     9.74     0  00:00        0.72
  WS02006256           JUNCTION     0.90     2.35     9.28     0  00:00        2.35
  WSF200               JUNCTION     0.16     0.28     5.51     0  02:18        0.28
  YS02001580           JUNCTION     0.22     1.05     9.59     0  01:46        0.77
  YS02001583           JUNCTION     0.25     1.14     9.64     0  01:46        0.83
  YS02001586           JUNCTION     0.38     1.13     9.30     0  01:46        1.13
  YS02001590           JUNCTION     0.51     1.40     9.26     0  01:46        1.38
  YS02001593           JUNCTION     0.44     1.38     9.24     0  01:46        1.31
  YS02001596           JUNCTION     0.60     1.71     9.13     0  01:46        1.69
  YS02001600           JUNCTION     0.70     1.87     9.00     0  01:46        1.87
  YS02001601           JUNCTION     0.89     2.06     8.90     0  01:45        2.06
  YS02001602           JUNCTION     0.78     1.87     8.77     0  01:46        1.87
  YS02001605           JUNCTION     0.72     1.78     8.68     0  01:55        1.78
  YS02001607           JUNCTION     0.66     1.65     8.50     0  02:10        1.65
  YS02001610           JUNCTION     0.70     1.68     8.48     0  01:50        1.68
  YS02001613           JUNCTION     0.66     1.67     8.51     0  01:57        1.67
  YS02001616           JUNCTION     0.60     1.61     8.52     0  01:57        1.61
  YS02001619           JUNCTION     0.58     1.61     8.54     0  01:55        1.61
  YS02001622           JUNCTION     0.57     1.58     8.49     0  02:07        1.58
  YS02001625           JUNCTION     0.80     1.78     8.38     0  01:50        1.78
  YS02001629           JUNCTION     0.72     1.85     8.40     0  01:53        1.85
  YS02001633           JUNCTION     0.79     2.08     8.53     0  01:55        2.08
  YS02001641           JUNCTION     0.74     1.96     8.40     0  02:00        1.96
  YS02001644           JUNCTION     0.72     1.92     8.35     0  01:54        1.92
  YS02001647           JUNCTION     0.50     1.81     8.42     0  01:55        1.81
  YS02001649           JUNCTION     0.57     2.05     8.44     0  01:59        2.03
  YS02001652           JUNCTION     0.44     2.04     8.63     0  01:59        1.95
  YS02001655           JUNCTION     0.35     2.20     9.05     0  01:53        1.84
  YS02001658           JUNCTION     0.26     1.86     9.00     0  01:59        1.69
  YS02001661           JUNCTION     0.24     1.75     9.16     0  01:59        1.56
  YS02001664           JUNCTION     0.12     1.38     9.31     0  01:59        1.17
  YS02001745           JUNCTION     0.13     1.09     8.61     0  02:00        1.07
  YS02001748           JUNCTION     0.23     1.63     8.70     0  01:55        1.45
  YS02001751           JUNCTION     0.29     1.66     8.54     0  01:53        1.60
  YS02001754           JUNCTION     0.39     1.82     8.43     0  02:00        1.82
  YS02001757           JUNCTION     0.57     2.12     8.38     0  01:59        2.10
  YS02001759           JUNCTION     0.52     2.20     8.57     0  01:55        2.20
  YS02001762           JUNCTION     0.51     2.15     8.55     0  01:55        2.15
  YS02001765           JUNCTION     0.49     2.10     8.55     0  01:55        2.10
  YS02001767           JUNCTION     0.48     2.03     8.52     0  01:55        2.03
  YS02001770           JUNCTION     0.49     1.95     8.44     0  01:55        1.95
  YS02001774           JUNCTION     0.55     2.05     8.47     0  01:55        2.05
  YS02001779           JUNCTION     0.37     1.68     8.37     0  01:52        1.68
  YS02001783           JUNCTION     0.41     1.31     7.46     0  01:51        1.26
  YS02001784           JUNCTION     0.40     1.17     7.24     0  01:51        1.15
  YS02001786           JUNCTION     0.33     0.91     6.94     0  01:51        0.89
  YS02001788           JUNCTION     0.24     0.63     6.61     0  02:00        0.63
  YS02001790           JUNCTION     0.28     0.73     6.38     0  02:00        0.72
  YS02001791           JUNCTION     0.17     0.45     5.92     0  02:00        0.43
  YS02001793           JUNCTION     0.09     0.25     5.08     0  01:58        0.24
  YS02001882           JUNCTION     0.51     1.73     8.45     0  02:01        1.73
  YS02001884           JUNCTION     0.59     1.83     8.45     0  02:01        1.83
  YS02001887           JUNCTION     0.67     1.91     8.45     0  02:00        1.91
  YS02001890           JUNCTION     0.69     1.81     8.32     0  01:51        1.81
  YS02001895           JUNCTION     0.47     1.58     8.32     0  02:10        1.58
  YS02001898           JUNCTION     0.48     1.57     8.30     0  01:55        1.56
  YS02001901           JUNCTION     0.58     1.68     8.29     0  02:12        1.68
  YS02001904           JUNCTION     0.56     1.65     8.28     0  01:57        1.65
  YS02001907           JUNCTION     0.86     1.96     8.25     0  01:51        1.96
  YS02001910           JUNCTION     0.69     2.01     8.52     0  02:02        2.01
  YS02001915           JUNCTION     0.53     2.00     8.72     0  01:59        2.00
  YS02001918           JUNCTION     0.35     1.81     8.88     0  01:52        1.81
  YS02001920           JUNCTION     0.43     2.14     9.15     0  01:52        2.14
  YS02001923           JUNCTION     0.28     2.03     9.29     0  01:52        2.03
  YS02001926           JUNCTION     0.29     1.90     9.35     0  01:51        1.90
  YS02001929           JUNCTION     0.19     1.78     9.47     0  01:51        1.78
  YS02006553           JUNCTION     0.87     2.04     8.32     0  01:55        2.04
  YS02006556           JUNCTION     0.84     2.05     8.36     0  01:55        2.05
  YS02006558           JUNCTION     0.88     2.12     8.39     0  01:55        2.12
  YS02006561           JUNCTION     0.26     0.99     7.65     0  01:51        0.95
  YS02163301           JUNCTION     0.74     1.97     8.49     0  01:55        1.97
  YS02163601           JUNCTION     0.81     2.06     8.46     0  02:01        2.06
  YS02164001           JUNCTION     0.73     1.97     8.43     0  02:01        1.97
  CC-1                 OUTFALL      0.00     0.00     0.00     0  00:00        0.00
  CC-2                 OUTFALL      0.00     0.00     0.00     0  00:00        0.00
  JK-1                 OUTFALL      0.00     0.00     0.00     0  00:00        0.00
  JK-2                 OUTFALL      0.00     0.00     0.00     0  00:00        0.00
  WSC                  OUTFALL      0.17     0.28     0.95     0  02:20        0.28
  CC-storage           STORAGE      0.54     1.43     6.93     0  02:43        1.43
  JK-storage           STORAGE      0.11     2.99     3.79     0  00:00        0.68
  
  
  *******************
  Node Inflow Summary
  *******************
  
  -------------------------------------------------------------------------------------------------
                                  Maximum  Maximum                  Lateral       Total        Flow
                                  Lateral    Total  Time of Max      Inflow      Inflow     Balance
                                   Inflow   Inflow   Occurrence      Volume      Volume       Error
  Node                 Type           LPS      LPS  days hr:min    10^6 ltr    10^6 ltr     Percent
  -------------------------------------------------------------------------------------------------
  WS02003060           JUNCTION     16.53   503.71     0  02:18       0.471        4.71       0.039
  WS02003066           JUNCTION      0.00   486.99     0  02:18           0        4.24       0.031
  WS02003067           JUNCTION      0.00   486.89     0  02:18           0        4.24       0.093
  WS02003069           JUNCTION      0.32   503.78     0  02:19     0.00912        4.71       0.075
  WS02003072           JUNCTION      0.00   503.31     0  02:19           0        4.71       0.139
  WS02003073           JUNCTION      1.82   504.91     0  02:20      0.0519        4.76       0.105
  WS02004401           JUNCTION      0.00   488.48     0  02:15           0        4.34       0.231
  WS02004402           JUNCTION      0.00   489.13     0  02:16           0        4.33       0.234
  WS02004403           JUNCTION      0.00   490.86     0  02:14           0        4.32       0.231
  WS02004404           JUNCTION      0.16   502.35     0  02:14     0.00462        4.31       0.145
  WS02004405           JUNCTION      0.04   547.76     0  02:14     0.00109        4.31       0.251
  WS02004406           JUNCTION      0.00   491.93     0  02:16           0        4.29       0.481
  WS02004407           JUNCTION      0.00   488.43     0  02:16           0        4.27       0.019
  WS02004409           JUNCTION      0.00   488.20     0  02:16           0        4.27       0.051
  WS02004410           JUNCTION      0.00   487.93     0  02:17           0        4.27       0.094
  WS02004411           JUNCTION      0.00   487.42     0  02:17           0        4.27       0.122
  WS02004412           JUNCTION      0.00   487.44     0  02:17           0        4.26       0.164
  WS02004413           JUNCTION      0.00   487.32     0  02:17           0        4.25       0.309
  WS02006109           JUNCTION      1.23   493.92     0  02:14      0.0351        4.38       0.166
  WS02006110           JUNCTION      0.00   494.06     0  02:14           0        4.37       0.146
  WS02006111           JUNCTION      0.00   508.62     0  01:54           0        4.37       0.024
  WS02006112           JUNCTION      0.00   493.59     0  01:54           0        4.37       0.461
  WS02006113           JUNCTION      0.00   493.11     0  01:54           0        4.37       0.031
  WS02006115           JUNCTION      0.00   494.12     0  02:13           0        4.35       0.156
  WS02006116           JUNCTION      0.00   489.78     0  02:13           0        4.34       0.061
  WS02006228           JUNCTION      0.00   492.97     0  02:14           0        4.35       0.043
  WS02006229           JUNCTION      0.00   492.08     0  02:14           0        4.35       0.125
  WS02006230           JUNCTION     10.28   534.64     0  02:28       0.293        4.36       0.118
  WS02006231           JUNCTION      0.00   542.80     0  02:44           0        4.06      -0.071
  WS02006232           JUNCTION      0.00   534.70     0  02:44           0        4.07       0.241
  WS02006234           JUNCTION      0.00   544.30     0  01:52           0        4.06      -0.408
  WS02006235           JUNCTION      0.00   550.86     0  01:45           0         4.1      -0.094
  WS02006238           JUNCTION      0.00   434.22     0  02:44           0        3.71      -0.104
  WS02006239           JUNCTION      0.00   429.65     0  02:44           0        3.67      -0.253
  WS02006240           JUNCTION      0.00   419.69     0  02:53           0        3.65      -0.128
  WS02006242           JUNCTION      0.00   420.87     0  02:53           0        3.65      -0.014
  WS02006243           JUNCTION      0.00   421.57     0  02:53           0        3.65       0.050
  WS02006245           JUNCTION      0.00   421.29     0  02:53           0        3.66       0.383
  WS02006247           JUNCTION      0.00   421.87     0  02:53           0        3.66      -0.020
  WS02006248           JUNCTION      0.00   422.48     0  02:53           0        3.67       0.049
  WS02006249           JUNCTION      0.00   478.53     0  01:41           0        3.69       0.330
  WS02006251           JUNCTION      0.08   405.40     0  01:40     0.00219        3.69      -0.033
  WS02006252           JUNCTION      0.00   400.00     0  00:00           0        3.69      -0.036
  WS02006256           JUNCTION      0.00   320.80     0  01:34           0       0.721     -11.559
  WSF200               JUNCTION      0.00   486.95     0  02:18           0        4.24       0.008
  YS02001580           JUNCTION      0.00    76.23     0  01:46           0     0.00414       1.623
  YS02001583           JUNCTION      0.00   131.72     0  01:46           0      0.0152      -4.986
  YS02001586           JUNCTION   1348.34  1348.34     0  02:03        2.85        2.86       0.040
  YS02001590           JUNCTION      0.00   318.00     0  02:14           0        1.72      -0.028
  YS02001593           JUNCTION      0.00   318.00     0  02:06           0        1.72       0.009
  YS02001596           JUNCTION      0.00   317.91     0  02:34           0        1.72       0.002
  YS02001600           JUNCTION      0.00   318.25     0  01:55           0        1.72       0.019
  YS02001601           JUNCTION   2364.61  2682.08     0  02:02        3.83        5.54       0.017
  YS02001602           JUNCTION      0.00   503.15     0  01:45           0        2.76       0.019
  YS02001605           JUNCTION      0.00   503.30     0  01:45           0         2.6       0.028
  YS02001607           JUNCTION      0.00   502.98     0  01:45           0         2.6       0.079
  YS02001610           JUNCTION      0.00   948.69     0  02:04           0        3.32       0.075
  YS02001613           JUNCTION      0.00   612.26     0  02:08           0        2.59       0.051
  YS02001616           JUNCTION      0.00   612.34     0  02:05           0         2.6       0.020
  YS02001619           JUNCTION   2407.28  2407.28     0  02:03        4.58        6.45      -0.000
  YS02001622           JUNCTION      0.00  1053.76     0  02:08           0         5.4       0.001
  YS02001625           JUNCTION      0.00  1505.30     0  02:09           0        5.85       0.159
  YS02001629           JUNCTION      0.00   974.81     0  02:02           0        4.51       0.021
  YS02001633           JUNCTION   1780.63  1780.63     0  02:02        2.82        6.62       0.054
  YS02001641           JUNCTION      0.00  1375.25     0  01:50           0        5.92       0.052
  YS02001644           JUNCTION   1591.42  2811.31     0  02:02        2.45        8.44       0.039
  YS02001647           JUNCTION      0.00  1776.56     0  01:50           0           7       0.007
  YS02001649           JUNCTION      0.00  2042.59     0  01:50           0        9.18       0.008
  YS02001652           JUNCTION      0.00  1557.35     0  02:01           0        2.27      -0.052
  YS02001655           JUNCTION      0.15  1555.91     0  02:01     0.00439        2.26      -0.032
  YS02001658           JUNCTION      0.00  1554.55     0  02:02           0        2.26      -0.022
  YS02001661           JUNCTION      0.00  1554.34     0  02:02           0        2.26       0.003
  YS02001664           JUNCTION   1552.64  1552.64     0  02:02        2.26        2.26      -0.008
  YS02001745           JUNCTION    978.53   978.53     0  02:01        1.35        1.35       0.089
  YS02001748           JUNCTION      0.04   987.85     0  02:01     0.00128        1.35      -0.118
  YS02001751           JUNCTION      0.01   988.56     0  02:01    0.000313        1.35       0.044
  YS02001754           JUNCTION      0.26   988.75     0  02:01     0.00741        1.36      -0.063
  YS02001757           JUNCTION      0.00  3668.93     0  02:01           0        14.4       0.043
  YS02001759           JUNCTION   1362.30  1551.06     0  02:00        1.87        3.89      -0.004
  YS02001762           JUNCTION      0.00   825.41     0  02:12           0        2.02       0.003
  YS02001765           JUNCTION      0.00   824.63     0  02:12           0        2.03       0.009
  YS02001767           JUNCTION      0.54   823.66     0  02:12      0.0152        2.03       0.007
  YS02001770           JUNCTION   1924.13  1924.13     0  02:02        2.83        2.87      -0.004
  YS02001774           JUNCTION      0.00   851.81     0  02:05           0       0.649       0.200
  YS02001779           JUNCTION      0.01   851.62     0  02:05    0.000142       0.605      -0.071
  YS02001783           JUNCTION      0.00  1187.84     0  02:01           0        5.21       0.005
  YS02001784           JUNCTION      1.06  1189.26     0  02:01      0.0302        5.24       0.011
  YS02001786           JUNCTION      0.06  1189.14     0  02:01      0.0016        5.24       0.014
  YS02001788           JUNCTION      0.07  1190.10     0  02:01     0.00202        5.24       0.005
  YS02001790           JUNCTION      0.15  1207.64     0  02:01     0.00442        5.24       0.007
  YS02001791           JUNCTION      0.00  1314.50     0  02:00           0        5.24      -0.011
  YS02001793           JUNCTION      0.00  1281.33     0  02:00           0        5.24      -0.041
  YS02001882           JUNCTION      0.00    36.71     0  01:48           0      0.0131       5.091
  YS02001884           JUNCTION      0.00    53.62     0  01:48           0      0.0494       5.541
  YS02001887           JUNCTION   1470.89  1471.64     0  02:01        1.93        1.96       0.224
  YS02001890           JUNCTION      0.00  1472.44     0  02:01           0        1.92       0.268
  YS02001895           JUNCTION      0.00   517.58     0  02:04           0        1.48       0.127
  YS02001898           JUNCTION      0.00   517.55     0  02:02           0        1.48       0.016
  YS02001901           JUNCTION      0.00   517.49     0  02:02           0        1.48       0.226
  YS02001904           JUNCTION      0.00   517.47     0  02:02           0        1.49       0.198
  YS02001907           JUNCTION      0.00  3297.19     0  02:02           0        5.79       0.315
  YS02001910           JUNCTION      0.00  1993.04     0  02:03           0        4.04       0.178
  YS02001915           JUNCTION   1715.19  2552.49     0  02:02        2.69        4.22       0.038
  YS02001918           JUNCTION      0.00   838.29     0  02:02           0        1.55       0.013
  YS02001920           JUNCTION      2.87   838.02     0  02:02      0.0818        1.54       0.063
  YS02001923           JUNCTION      0.04   835.34     0  02:02     0.00107        1.44      -0.025
  YS02001926           JUNCTION      0.05   834.57     0  02:02     0.00149        1.42       0.030
  YS02001929           JUNCTION    833.74   833.74     0  02:03        1.42        1.42      -0.031
  YS02006553           JUNCTION      0.00   796.32     0  02:26           0        2.97       0.404
  YS02006556           JUNCTION      0.00   796.13     0  02:26           0        2.98       0.274
  YS02006558           JUNCTION   1968.58  1968.58     0  02:02        2.84        5.51       0.062
  YS02006561           JUNCTION      0.00  1188.70     0  02:01           0        5.21      -0.001
  YS02163301           JUNCTION      0.00   974.67     0  02:02           0        4.51       0.039
  YS02163601           JUNCTION      0.11  1375.16     0  01:50     0.00313        5.92       0.089
  YS02164001           JUNCTION      0.00  1375.47     0  01:50           0        5.91       0.043
  CC-1                 OUTFALL       0.00   683.00     0  00:00           0         6.3       0.000
  CC-2                 OUTFALL       0.00   683.00     0  00:00           0         6.3       0.000
  JK-1                 OUTFALL       0.00  1000.00     0  00:00           0        2.37       0.000
  JK-2                 OUTFALL       0.00  1000.00     0  00:00           0        2.37       0.000
  WSC                  OUTFALL       0.00   504.77     0  02:20           0        4.75       0.000
  CC-storage           STORAGE       0.00  3669.89     0  02:01           0        16.6      -0.313
  JK-storage           STORAGE       0.00  1403.34     0  02:00           0         5.4      -0.978
  
  
  **********************
  Node Surcharge Summary
  **********************
  
  Surcharging occurs when water rises above the top of the highest conduit.
  ---------------------------------------------------------------------
                                               Max. Height   Min. Depth
                                   Hours       Above Crown    Below Rim
  Node                 Type      Surcharged         Meters       Meters
  ---------------------------------------------------------------------
  WS02006109           JUNCTION        2.08          0.104        1.716
  WS02006112           JUNCTION        0.58          0.025        1.655
  WS02006228           JUNCTION        2.07          0.131        2.069
  WS02006229           JUNCTION        2.10          0.152        2.298
  WS02006231           JUNCTION        0.16          0.438        1.092
  WS02006232           JUNCTION        2.18          1.112        0.368
  WS02006234           JUNCTION        1.03          1.240        0.000
  WS02006235           JUNCTION        1.90          1.290        0.000
  WS02006238           JUNCTION        2.14          1.430        0.000
  WS02006239           JUNCTION        2.05          1.290        0.000
  WS02006240           JUNCTION        2.09          1.390        0.000
  WS02006242           JUNCTION        2.21          0.820        0.000
  WS02006243           JUNCTION        2.12          0.770        0.000
  WS02006245           JUNCTION        2.12          0.850        0.000
  WS02006247           JUNCTION        2.14          0.760        0.000
  WS02006248           JUNCTION        2.11          0.380        0.000
  WS02006249           JUNCTION        2.13          0.390        0.000
  WS02006251           JUNCTION        0.73          0.169        1.011
  WS02006252           JUNCTION        2.56          1.100        0.000
  WS02006256           JUNCTION        4.84          2.050        0.000
  YS02001580           JUNCTION        0.96          0.450        0.000
  YS02001583           JUNCTION        0.96          0.500        0.000
  YS02001586           JUNCTION        1.07          0.510        0.000
  YS02001590           JUNCTION        1.17          0.750        0.000
  YS02001593           JUNCTION        1.17          0.756        0.084
  YS02001596           JUNCTION        1.30          0.984        0.086
  YS02001600           JUNCTION        1.46          1.190        0.000
  YS02001601           JUNCTION        1.75          1.440        0.000
  YS02001602           JUNCTION        1.65          1.270        0.000
  YS02001605           JUNCTION        1.61          1.180        0.000
  YS02001607           JUNCTION        1.10          0.649        0.031
  YS02001610           JUNCTION        1.14          0.680        0.000
  YS02001613           JUNCTION        1.10          0.673        0.027
  YS02001616           JUNCTION        1.04          0.610        0.000
  YS02001619           JUNCTION        1.03          0.610        0.000
  YS02001622           JUNCTION        1.03          0.585        0.035
  YS02001625           JUNCTION        1.25          0.780        0.000
  YS02001629           JUNCTION        0.93          0.470        0.000
  YS02001633           JUNCTION        1.26          1.060        0.000
  YS02001641           JUNCTION        1.16          0.964        0.136
  YS02001644           JUNCTION        1.10          0.920        0.000
  YS02001647           JUNCTION        0.80          0.808        0.092
  YS02001649           JUNCTION        0.94          1.050        0.000
  YS02001652           JUNCTION        0.68          1.008        0.122
  YS02001655           JUNCTION        0.49          1.200        0.000
  YS02001658           JUNCTION        0.34          0.862        0.438
  YS02001661           JUNCTION        0.17          0.685        0.705
  YS02001664           JUNCTION        0.04          0.384        0.926
  YS02001745           JUNCTION        0.02          0.094        1.256
  YS02001748           JUNCTION        0.24          0.547        0.643
  YS02001751           JUNCTION        0.38          0.664        0.536
  YS02001754           JUNCTION        0.52          0.771        0.379
  YS02001757           JUNCTION        0.98          1.116        0.094
  YS02001759           JUNCTION        0.86          1.205        0.005
  YS02001762           JUNCTION        0.82          1.150        0.000
  YS02001765           JUNCTION        0.77          1.100        0.000
  YS02001767           JUNCTION        0.72          1.030        0.000
  YS02001770           JUNCTION        0.69          0.920        0.000
  YS02001774           JUNCTION        0.80          1.050        0.000
  YS02001779           JUNCTION        0.53          0.680        0.000
  YS02001783           JUNCTION        0.80          0.514        1.086
  YS02001784           JUNCTION        0.77          0.368        1.122
  YS02001786           JUNCTION        0.64          0.112        1.318
  YS02001882           JUNCTION        0.73          0.733        0.097
  YS02001884           JUNCTION        0.74          0.771        0.099
  YS02001887           JUNCTION        0.78          0.864        0.086
  YS02001890           JUNCTION        0.80          0.760        0.000
  YS02001895           JUNCTION        0.72          0.577        0.173
  YS02001898           JUNCTION        0.71          0.537        0.203
  YS02001901           JUNCTION        0.77          0.678        0.192
  YS02001904           JUNCTION        0.76          0.647        0.203
  YS02001907           JUNCTION        1.08          0.950        0.000
  YS02001910           JUNCTION        0.83          1.014        0.086
  YS02001915           JUNCTION        0.73          1.000        0.000
  YS02001918           JUNCTION        0.62          0.810        0.000
  YS02001920           JUNCTION        0.64          1.140        0.000
  YS02001923           JUNCTION        0.28          0.820        0.000
  YS02001926           JUNCTION        0.32          0.900        0.000
  YS02001929           JUNCTION        0.17          0.780        0.000
  YS02006553           JUNCTION        1.11          1.040        0.150
  YS02006556           JUNCTION        0.95          1.009        0.341
  YS02006558           JUNCTION        0.94          1.019        0.381
  YS02006561           JUNCTION        0.59          0.191        0.959
  YS02163301           JUNCTION        1.24          0.971        0.059
  YS02163601           JUNCTION        1.29          1.062        0.018
  YS02164001           JUNCTION        1.17          0.970        0.130
  
  
  *********************
  Node Flooding Summary
  *********************
  
  Flooding refers to all water that overflows a node, whether it ponds or not.
  --------------------------------------------------------------------------
                                                             Total   Maximum
                                 Maximum   Time of Max       Flood    Ponded
                        Hours       Rate    Occurrence      Volume     Depth
  Node                 Flooded       LPS   days hr:min    10^6 ltr    Meters
  --------------------------------------------------------------------------
  WS02006234              0.01     61.58      0  02:12       0.000     0.000
  WS02006235              0.01     20.98      0  02:17       0.000     0.000
  WS02006238              0.01     20.28      0  02:10       0.000     0.000
  WS02006239              0.01     17.18      0  02:12       0.000     0.000
  WS02006240              0.01     28.04      0  02:17       0.000     0.000
  WS02006242              0.02     31.67      0  02:12       0.001     0.000
  WS02006243              0.01      6.05      0  01:53       0.000     0.000
  WS02006245              0.01      3.00      0  01:57       0.000     0.000
  WS02006247              0.01      3.95      0  01:57       0.000     0.000
  WS02006248              0.23     24.93      0  02:22       0.011     0.000
  WS02006249              0.31     20.60      0  02:17       0.006     0.000
  WS02006252              0.01    245.63      0  00:00       0.000     0.000
  WS02006256              0.67    293.19      0  00:00       0.418     0.000
  YS02001580              0.01     47.36      0  01:46       0.000     0.000
  YS02001583              0.01     12.55      0  01:46       0.000     0.000
  YS02001586              0.79   1030.63      0  02:03       1.131     0.000
  YS02001590              0.01     12.28      0  01:46       0.000     0.000
  YS02001600              0.01      3.23      0  01:46       0.000     0.000
  YS02001601              0.98   2284.09      0  02:02       2.780     0.000
  YS02001602              0.78     62.06      0  02:17       0.162     0.000
  YS02001605              0.01      0.14      0  01:55       0.000     0.000
  YS02001610              0.71    948.49      0  02:04       1.455     0.000
  YS02001616              0.18      1.09      0  02:01       0.001     0.000
  YS02001619              0.21    743.25      0  02:03       0.319     0.000
  YS02001625              0.63   1505.15      0  02:10       2.027     0.000
  YS02001629              0.29    532.78      0  02:02       0.261     0.000
  YS02001633              0.01      0.25      0  02:00       0.000     0.000
  YS02001644              0.32   2810.69      0  02:02       1.511     0.000
  YS02001649              0.01     41.70      0  01:59       0.000     0.000
  YS02001655              0.01    213.73      0  01:53       0.000     0.000
  YS02001762              0.01      0.82      0  01:55       0.000     0.000
  YS02001765              0.01      0.73      0  01:55       0.000     0.000
  YS02001767              0.01      0.72      0  01:55       0.000     0.000
  YS02001770              0.13    884.25      0  02:02       0.230     0.000
  YS02001774              0.01      0.86      0  01:55       0.000     0.000
  YS02001779              0.29    851.39      0  02:05       0.586     0.000
  YS02001890              0.32    956.01      0  02:01       0.436     0.000
  YS02001907              0.56   3297.03      0  02:02       3.091     0.000
  YS02001915              0.13    559.72      0  02:02       0.151     0.000
  YS02001918              0.01     95.61      0  01:52       0.001     0.000
  YS02001920              0.01     25.27      0  01:52       0.000     0.000
  YS02001923              0.01    102.81      0  01:52       0.000     0.000
  YS02001926              0.01    186.95      0  01:51       0.000     0.000
  YS02001929              0.01    238.89      0  01:51       0.001     0.000
  
  
  **********************
  Storage Volume Summary
  **********************
  
  ------------------------------------------------------------------------------------------------
                         Average    Avg   Evap  Exfil     Maximum    Max    Time of Max    Maximum
                          Volume   Pcnt   Pcnt   Pcnt      Volume   Pcnt     Occurrence    Outflow
  Storage Unit           1000 m³   Full   Loss   Loss     1000 m³   Full    days hr:min        LPS
  ------------------------------------------------------------------------------------------------
  CC-storage               1.516   23.7    0.0    0.0       3.974   62.0       0  02:43    1783.53
  JK-storage               0.006    1.9    0.0    0.0       0.150   51.6       0  00:00    2300.00
  
  
  ***********************
  Outfall Loading Summary
  ***********************
  
  -----------------------------------------------------------
                         Flow       Avg       Max       Total
                         Freq      Flow      Flow      Volume
  Outfall Node           Pcnt       LPS       LPS    10^6 ltr
  -----------------------------------------------------------
  CC-1                  57.17    683.00    683.00       6.298
  CC-2                  57.17    683.00    683.00       6.298
  JK-1                  17.05   1000.00   1000.00       2.368
  JK-2                  17.05   1000.00   1000.00       2.368
  WSC                   99.94    244.69    504.77       4.751
  -----------------------------------------------------------
  System                49.68   3610.69   3870.76      22.082
  
  
  ********************
  Link Flow Summary
  ********************
  
  -----------------------------------------------------------------------------
                                 Maximum  Time of Max   Maximum    Max/    Max/
                                  |Flow|   Occurrence   |Veloc|    Full    Full
  Link                 Type          LPS  days hr:min     m/sec    Flow   Depth
  -----------------------------------------------------------------------------
  1                    CONDUIT    504.77     0  02:20      2.75    0.18    0.28
  WS02003060WS02003069 CONDUIT    503.46     0  02:19      1.60    0.20    0.32
  WS02003066WSF200     CONDUIT    486.95     0  02:18      2.78    0.08    0.21
  WS02003067WS02003066 CONDUIT    486.99     0  02:18      1.14    0.16    0.40
  WS02003069WS02003072 CONDUIT    503.31     0  02:19      1.33    0.24    0.37
  WS02003072WS02003073 CONDUIT    503.09     0  02:20      1.39    1.09    0.36
  WS02004401WS02004402 CONDUIT    489.13     0  02:16      1.22    0.59    0.84
  WS02004402WS02004403 CONDUIT    490.86     0  02:14      1.24    0.71    0.87
  WS02004403WS02004404 CONDUIT    502.19     0  02:14      1.24    0.36    0.92
  WS02004404WS02004405 CONDUIT    547.73     0  02:14      1.45    5.37    0.94
  WS02004405WS02004406 CONDUIT    491.93     0  02:16      1.46    0.97    0.93
  WS02004406WS02004407 CONDUIT    488.43     0  02:16      0.98    0.22    0.61
  WS02004407WS02004409 CONDUIT    488.20     0  02:16      1.59    0.17    0.46
  WS02004409WS02004410 CONDUIT    487.93     0  02:17      1.06    0.63    0.64
  WS02004410WS02004411 CONDUIT    487.42     0  02:17      1.13    0.67    0.65
  WS02004411WS02004412 CONDUIT    487.44     0  02:17      1.20    0.69    0.66
  WS02004412WS02004413 CONDUIT    487.32     0  02:17      1.22    0.33    0.75
  WS02004413WS02003067 CONDUIT    486.89     0  02:18      1.05    0.21    0.57
  WS02006109WS02006110 CONDUIT    494.06     0  02:14      0.99    0.95    0.99
  WS02006110WS02006113 CONDUIT    493.11     0  01:54      1.19    0.45    0.77
  WS02006111WS02006112 CONDUIT    493.59     0  01:54      1.95    0.23    0.66
  WS02006112WS02006115 CONDUIT    494.12     0  02:13      0.82    0.29    0.86
  WS02006113WS02006111 CONDUIT    508.62     0  01:54      2.38    0.61    0.44
  WS02006115WS02006116 CONDUIT    489.78     0  02:13      1.29    0.63    0.74
  WS02006116WS02004401 CONDUIT    488.48     0  02:15      1.21    0.67    0.82
  WS02006228WS02006109 CONDUIT    492.69     0  02:14      1.06    2.15    1.00
  WS02006229WS02006228 CONDUIT    492.97     0  02:14      1.12    1.63    1.00
  WS02006230WS02006229 CONDUIT    492.08     0  02:14      1.28   10.95    1.00
  WS02006231WS02006230 CONDUIT    524.36     0  02:28      1.41    7.95    0.95
  WS02006232WS02006231 CONDUIT    542.80     0  02:44      1.43    1.14    1.00
  WS02006234WS02006232 CONDUIT    534.70     0  02:44      1.39    1.08    1.00
  WS02006235WS02006234 CONDUIT    544.30     0  01:52      1.41    5.74    1.00
  WS02006238WS02006235 CONDUIT    441.55     0  02:44      1.45    0.99    1.00
  WS02006239WS02006238 CONDUIT    434.22     0  02:44      1.17    1.39    1.00
  WS02006240WS02006239 CONDUIT    429.65     0  02:44      1.24    1.35    1.00
  WS02006242WS02006240 CONDUIT    419.69     0  02:53      1.16    1.67    1.00
  WS02006243WS02006242 CONDUIT    420.87     0  02:53      1.43    0.90    1.00
  WS02006245WS02006243 CONDUIT    421.57     0  02:53      1.44    1.25    1.00
  WS02006247WS02006245 CONDUIT    421.29     0  02:53      1.43    3.34    1.00
  WS02006248WS02006247 CONDUIT    421.87     0  02:53      1.43    0.92    1.00
  WS02006249WS02006248 CONDUIT    422.48     0  02:53      1.38    2.31    1.00
  WS02006251WS02006249 CONDUIT    478.53     0  01:41      1.99    1.38    1.00
  WS02006252WS02006251 CONDUIT    405.32     0  01:40     18.88    1.49    1.00
  WS02006256WS02006235 CONDUIT    288.91     0  00:00      4.23    3.06    1.00
  WSF200WS02003060     CONDUIT    487.19     0  02:18      2.01    0.11    0.27
  YS02001580YS02001583 CONDUIT     76.23     0  01:46      0.56    0.30    1.00
  YS02001583YS02001586 CONDUIT    131.72     0  01:46      0.55    0.20    1.00
  YS02001586YS02001590 CONDUIT    318.00     0  02:14      1.28    0.56    1.00
  YS02001590YS02001593 CONDUIT    318.00     0  02:06      1.12    2.00    1.00
  YS02001593YS02001596 CONDUIT    317.91     0  02:34      1.77    0.50    1.00
  YS02001596YS02001600 CONDUIT    318.25     0  01:55      1.28    0.62    1.00
  YS02001600YS02001601 CONDUIT    318.40     0  01:55      1.13    0.55    1.00
  YS02001601YS02001602 CONDUIT    503.15     0  01:45      1.78    1.82    1.00
  YS02001602YS02001605 CONDUIT    503.30     0  01:45      1.78   10.65    1.00
  YS02001605YS02001607 CONDUIT    502.98     0  01:45      1.78    2.76    1.00
  YS02001607YS02001610 CONDUIT    501.24     0  01:45      0.64    0.48    1.00
  YS02001610YS02001613 CONDUIT    612.52     0  02:04      0.78    0.71    1.00
  YS02001613YS02001616 CONDUIT    612.26     0  02:08      0.78    0.52    1.00
  YS02001616YS02001619 CONDUIT    612.34     0  02:05      0.78    1.06    1.00
  YS02001619YS02001622 CONDUIT   1053.76     0  02:08      1.34    1.55    1.00
  YS02001622YS02001625 CONDUIT   1053.58     0  02:06      1.34    0.56    1.00
  YS02001625YS02001629 CONDUIT    930.24     0  01:50      1.18    0.44    1.00
  YS02001629YS02163301 CONDUIT    974.81     0  02:02      1.24    1.20    1.00
  YS02001633YS02163601 CONDUIT   1375.05     0  01:50      1.75    1.44    1.00
  YS02001641YS02001644 CONDUIT   1375.66     0  01:50      1.75    4.45    1.00
  YS02001644YS02001647 CONDUIT   1776.56     0  01:50      2.27    1.04    1.00
  YS02001647YS02001649 CONDUIT   1779.95     0  01:51      2.33    0.94    1.00
  YS02001649YS02001757 CONDUIT   2035.11     0  01:50      2.60    1.23    1.00
  YS02001652YS02001649 CONDUIT   1558.60     0  02:01      1.98    0.77    1.00
  YS02001655YS02001652 CONDUIT   1557.35     0  02:01      1.98    0.76    1.00
  YS02001658YS02001655 CONDUIT   1555.76     0  02:01      1.98    0.66    1.00
  YS02001661YS02001658 CONDUIT   1554.55     0  02:02      2.30    0.61    1.00
  YS02001664YS02001661 CONDUIT   1554.34     0  02:02      2.29    0.49    1.00
  YS02001745YS02001748 CONDUIT    987.81     0  02:01      2.16    0.38    1.00
  YS02001748YS02001751 CONDUIT    988.55     0  02:01      1.66    0.50    1.00
  YS02001751YS02001754 CONDUIT    988.49     0  02:01      1.38    0.48    1.00
  YS02001754YS02001757 CONDUIT    989.57     0  02:01      1.26    0.40    1.00
  YS02001757CaochengTiaoxuchi CONDUIT   3669.89     0  02:01      5.94    1.59    1.00
  YS02001759YS02001757 CONDUIT   1551.07     0  02:00      1.97    1.10    1.00
  YS02001762YS02001759 CONDUIT    826.51     0  02:12      1.05    0.95    1.00
  YS02001765YS02001762 CONDUIT    825.41     0  02:12      1.05    0.77    1.00
  YS02001767YS02001765 CONDUIT    824.63     0  02:12      1.05    1.04    1.00
  YS02001770YS02001767 CONDUIT    823.12     0  02:12      1.05    3.26    1.00
  YS02001774YS02001770 CONDUIT    851.81     0  02:05      1.08    0.54    1.00
  YS02001779YS02001774 CONDUIT    851.62     0  02:05      1.08    0.43    1.00
  YS02001783YS02001784 CONDUIT   1188.20     0  02:01      2.36    1.64    1.00
  YS02001784YS02001785 CONDUIT   1189.08     0  02:01      2.37    2.77    1.00
  YS02001786YS02001788 CONDUIT   1190.03     0  02:01      2.52    2.29    0.90
  YS02001788YS02001790 CONDUIT   1207.48     0  02:01      2.76    0.89    0.85
  YS02001790YS02001791 CONDUIT   1314.50     0  02:00      3.44    1.43    0.71
  YS02001791YS02001793 CONDUIT   1281.33     0  02:00      6.79    0.55    0.43
  YS02001793JiankangQianchi CONDUIT   1403.34     0  02:00     14.99    0.11    0.50
  YS02001882YS02001884 CONDUIT     36.71     0  01:48      0.17    0.04    1.00
  YS02001884YS02001887 CONDUIT     53.62     0  01:48      0.13    0.07    1.00
  YS02001887YS02001890 CONDUIT   1472.44     0  02:01      1.87    2.52    1.00
  YS02001890YS02001895 CONDUIT    517.58     0  02:04      0.66    0.24    1.00
  YS02001895YS02001898 CONDUIT    517.55     0  02:02      0.66    0.90    1.00
  YS02001898YS02001901 CONDUIT    517.49     0  02:02      0.66    0.33    1.00
  YS02001901YS02001904 CONDUIT    517.47     0  02:02      0.66    0.80    1.00
  YS02001904YS02001907 CONDUIT    517.62     0  02:05      0.66    0.18    1.00
  YS02001907YS02006553 CONDUIT    796.32     0  02:26      0.88    0.94    1.00
  YS02001910YS02001907 CONDUIT   1992.92     0  02:03      2.54    1.12    1.00
  YS02001915YS02001910 CONDUIT   1993.04     0  02:03      2.54    0.99    1.00
  YS02001918YS02001915 CONDUIT    838.96     0  02:02      1.07    0.46    1.00
  YS02001920YS02001918 CONDUIT    838.29     0  02:02      1.07    0.81    1.00
  YS02001923YS02001920 CONDUIT    835.15     0  02:02      1.06    0.37    1.00
  YS02001926YS02001923 CONDUIT    835.30     0  02:02      1.06    1.19    1.00
  YS02001929YS02001926 CONDUIT    834.52     0  02:02      1.08    0.40    1.00
  YS02006553YS02006556 CONDUIT    796.13     0  02:26      1.01    0.68    1.00
  YS02006556YS02006558 CONDUIT    797.29     0  02:26      1.02    0.63    1.00
  YS02006558YS02006561 CONDUIT   1188.70     0  02:01      4.20    2.63    1.00
  YS02006561YS02001783 CONDUIT   1187.84     0  02:01      2.36    0.62    1.00
  YS02163301YS02001633 CONDUIT    974.67     0  02:02      1.24    0.92    1.00
  YS02163601YS02164001 CONDUIT   1375.47     0  01:50      1.75    1.22    1.00
  YS02164001YS02001641 CONDUIT   1375.25     0  01:50      1.75    1.88    1.00
  CC-R1                PUMP       683.00     0  00:00              1.00
  CC-R2                PUMP       683.00     0  00:00              1.00
  CC-S1                PUMP       200.00     0  00:00              1.00
  CC-S2                PUMP       200.00     0  00:00              1.00
  JK-R1                PUMP      1000.00     0  00:00              1.00
  JK-R2                PUMP      1000.00     0  00:00              1.00
  JK-S                 PUMP       300.00     0  00:00              1.00
  
  
  ***************************
  Flow Classification Summary
  ***************************
  
  -------------------------------------------------------------------------------------
                      Adjusted    ---------- Fraction of Time in Flow Class ---------- 
                       /Actual         Up    Down  Sub   Sup   Up    Down  Norm  Inlet 
  Conduit               Length    Dry  Dry   Dry   Crit  Crit  Crit  Crit  Ltd   Ctrl  
  -------------------------------------------------------------------------------------
  1                       1.00   0.00  0.00  0.00  0.00  1.00  0.00  0.00  0.55  0.00
  WS02003060WS02003069    1.00   0.00  0.00  0.00  0.97  0.03  0.00  0.00  0.70  0.00
  WS02003066WSF200        1.00   0.05  0.00  0.00  0.00  0.95  0.00  0.00  0.92  0.00
  WS02003067WS02003066    1.00   0.05  0.00  0.00  0.95  0.00  0.00  0.00  0.00  0.00
  WS02003069WS02003072    1.00   0.00  0.00  0.00  0.99  0.01  0.00  0.00  0.72  0.00
  WS02003072WS02003073    1.00   0.00  0.00  0.00  0.00  0.00  0.00  1.00  0.00  0.00
  WS02004401WS02004402    1.00   0.02  0.00  0.00  0.98  0.00  0.00  0.00  0.00  0.00
  WS02004402WS02004403    1.00   0.02  0.00  0.00  0.98  0.00  0.00  0.00  0.00  0.00
  WS02004403WS02004404    1.00   0.00  0.03  0.00  0.97  0.00  0.00  0.00  0.00  0.00
  WS02004404WS02004405    1.00   0.00  0.00  0.00  1.00  0.00  0.00  0.00  0.01  0.00
  WS02004405WS02004406    1.00   0.00  0.00  0.00  1.00  0.00  0.00  0.00  0.00  0.00
  WS02004406WS02004407    1.00   0.00  0.03  0.00  0.97  0.00  0.00  0.00  0.00  0.00
  WS02004407WS02004409    1.00   0.03  0.00  0.00  0.95  0.01  0.00  0.00  0.96  0.00
  WS02004409WS02004410    1.00   0.03  0.00  0.00  0.96  0.00  0.00  0.00  0.00  0.00
  WS02004410WS02004411    1.00   0.04  0.00  0.00  0.96  0.00  0.00  0.00  0.00  0.00
  WS02004411WS02004412    1.00   0.04  0.00  0.00  0.96  0.00  0.00  0.00  0.00  0.00
  WS02004412WS02004413    1.00   0.04  0.00  0.00  0.96  0.00  0.00  0.00  0.00  0.00
  WS02004413WS02003067    1.00   0.04  0.01  0.00  0.00  0.00  0.95  0.00  0.00  0.00
  WS02006109WS02006110    1.00   0.00  0.01  0.00  0.98  0.00  0.01  0.00  0.00  0.00
  WS02006110WS02006113    1.00   0.01  0.01  0.00  0.98  0.00  0.00  0.00  0.00  0.00
  WS02006111WS02006112    1.00   0.02  0.00  0.00  0.98  0.00  0.00  0.00  0.98  0.00
  WS02006112WS02006115    1.00   0.02  0.00  0.00  0.97  0.00  0.00  0.00  0.00  0.00
  WS02006113WS02006111    1.00   0.02  0.00  0.00  0.00  0.98  0.00  0.00  0.12  0.00
  WS02006115WS02006116    1.00   0.02  0.00  0.00  0.97  0.00  0.00  0.01  0.00  0.00
  WS02006116WS02004401    1.00   0.02  0.00  0.00  0.98  0.00  0.00  0.00  0.00  0.00
  WS02006228WS02006109    1.00   0.00  0.00  0.00  1.00  0.00  0.00  0.00  0.00  0.00
  WS02006229WS02006228    1.00   0.00  0.00  0.00  0.99  0.00  0.00  0.01  0.00  0.00
  WS02006230WS02006229    1.00   0.00  0.00  0.00  0.99  0.00  0.00  0.01  0.02  0.00
  WS02006231WS02006230    1.00   0.00  0.00  0.00  0.29  0.00  0.71  0.00  0.00  0.00
  WS02006232WS02006231    1.00   0.00  0.00  0.00  0.99  0.00  0.01  0.00  0.00  0.00
  WS02006234WS02006232    1.00   0.00  0.00  0.00  1.00  0.00  0.00  0.00  0.15  0.00
  WS02006235WS02006234    1.00   0.00  0.00  0.00  0.65  0.00  0.35  0.00  0.00  0.00
  WS02006238WS02006235    1.00   0.00  0.00  0.00  1.00  0.00  0.00  0.00  0.01  0.00
  WS02006239WS02006238    1.00   0.00  0.00  0.00  1.00  0.00  0.00  0.00  0.32  0.00
  WS02006240WS02006239    1.00   0.00  0.00  0.00  0.53  0.00  0.00  0.47  0.03  0.00
  WS02006242WS02006240    1.00   0.00  0.00  0.00  0.99  0.00  0.01  0.00  0.00  0.00
  WS02006243WS02006242    1.00   0.00  0.00  0.00  0.99  0.00  0.00  0.01  0.63  0.00
  WS02006245WS02006243    1.00   0.00  0.00  0.00  0.53  0.00  0.00  0.47  0.01  0.00
  WS02006247WS02006245    1.00   0.00  0.00  0.00  0.99  0.00  0.00  0.01  0.00  0.00
  WS02006248WS02006247    1.00   0.00  0.00  0.00  0.99  0.00  0.00  0.01  0.19  0.00
  WS02006249WS02006248    1.00   0.00  0.00  0.00  0.37  0.00  0.63  0.00  0.00  0.00
  WS02006251WS02006249    1.00   0.00  0.00  0.00  1.00  0.00  0.00  0.00  0.64  0.00
  WS02006252WS02006251    1.00   0.00  0.67  0.00  0.09  0.00  0.24  0.00  0.19  0.00
  WS02006256WS02006235    1.00   0.00  0.00  0.00  0.99  0.01  0.00  0.00  0.01  0.00
  WSF200WS02003060        1.00   0.00  0.05  0.00  0.47  0.48  0.00  0.00  0.65  0.00
  YS02001580YS02001583    1.00   0.22  0.54  0.00  0.24  0.00  0.00  0.00  0.63  0.00
  YS02001583YS02001586    1.00   0.40  0.31  0.00  0.29  0.00  0.00  0.00  0.64  0.00
  YS02001586YS02001590    1.00   0.13  0.00  0.00  0.47  0.04  0.00  0.37  0.35  0.00
  YS02001590YS02001593    1.00   0.13  0.01  0.00  0.16  0.00  0.70  0.00  0.00  0.00
  YS02001593YS02001596    1.00   0.13  0.00  0.00  0.18  0.01  0.00  0.67  0.02  0.00
  YS02001596YS02001600    1.00   0.13  0.00  0.00  0.24  0.01  0.00  0.62  0.04  0.00
  YS02001600YS02001601    1.00   0.13  0.01  0.00  0.86  0.00  0.00  0.00  0.57  0.00
  YS02001601YS02001602    1.00   0.13  0.01  0.00  0.87  0.00  0.00  0.00  0.00  0.00
  YS02001602YS02001605    1.00   0.13  0.00  0.00  0.87  0.00  0.00  0.00  0.00  0.00
  YS02001605YS02001607    1.00   0.14  0.00  0.00  0.86  0.00  0.00  0.00  0.00  0.00
  YS02001607YS02001610    1.00   0.13  0.00  0.00  0.86  0.00  0.00  0.00  0.01  0.00
  YS02001610YS02001613    1.00   0.13  0.00  0.00  0.87  0.00  0.00  0.00  0.00  0.00
  YS02001613YS02001616    1.00   0.13  0.00  0.00  0.87  0.00  0.00  0.00  0.00  0.00
  YS02001616YS02001619    1.00   0.13  0.00  0.00  0.87  0.00  0.00  0.00  0.00  0.00
  YS02001619YS02001622    1.00   0.13  0.00  0.00  0.87  0.00  0.00  0.00  0.26  0.00
  YS02001622YS02001625    1.00   0.13  0.00  0.00  0.87  0.00  0.00  0.00  0.03  0.00
  YS02001625YS02001629    1.00   0.13  0.04  0.00  0.20  0.00  0.63  0.00  0.00  0.00
  YS02001629YS02163301    1.00   0.14  0.01  0.00  0.85  0.00  0.00  0.00  0.00  0.00
  YS02001633YS02163601    1.00   0.00  0.01  0.00  0.99  0.00  0.00  0.00  0.14  0.00
  YS02001641YS02001644    1.00   0.00  0.01  0.00  0.99  0.00  0.00  0.00  0.00  0.00
  YS02001644YS02001647    1.00   0.00  0.16  0.00  0.84  0.00  0.00  0.00  0.00  0.00
  YS02001647YS02001649    1.00   0.00  0.16  0.00  0.55  0.29  0.00  0.00  0.55  0.00
  YS02001649YS02001757    1.00   0.00  0.00  0.00  0.69  0.31  0.00  0.00  0.45  0.00
  YS02001652YS02001649    1.00   0.00  0.00  0.00  0.97  0.03  0.00  0.00  0.71  0.00
  YS02001655YS02001652    1.00   0.00  0.00  0.00  0.22  0.01  0.00  0.77  0.06  0.00
  YS02001658YS02001655    1.00   0.00  0.14  0.00  0.67  0.19  0.00  0.00  0.66  0.00
  YS02001661YS02001658    1.00   0.14  0.00  0.00  0.50  0.36  0.00  0.00  0.69  0.00
  YS02001664YS02001661    1.00   0.13  0.00  0.00  0.72  0.15  0.00  0.00  0.83  0.00
  YS02001745YS02001748    1.00   0.00  0.00  0.00  0.11  0.01  0.00  0.88  0.06  0.00
  YS02001748YS02001751    1.00   0.00  0.00  0.00  0.83  0.17  0.00  0.00  0.76  0.00
  YS02001751YS02001754    1.00   0.00  0.00  0.00  0.18  0.01  0.00  0.81  0.03  0.00
  YS02001754YS02001757    1.00   0.00  0.00  0.00  1.00  0.00  0.00  0.00  0.80  0.00
  YS02001757CaochengTiaoxuchi    1.00   0.00  0.00  0.00  0.81  0.19  0.00  0.00  0.72  0.00
  YS02001759YS02001757    1.00   0.00  0.00  0.00  0.99  0.01  0.00  0.00  0.59  0.00
  YS02001762YS02001759    1.00   0.00  0.00  0.00  1.00  0.00  0.00  0.00  0.04  0.00
  YS02001765YS02001762    1.00   0.00  0.00  0.00  1.00  0.00  0.00  0.00  0.70  0.00
  YS02001767YS02001765    1.00   0.00  0.00  0.00  1.00  0.00  0.00  0.00  0.00  0.00
  YS02001770YS02001767    1.00   0.00  0.00  0.00  1.00  0.00  0.00  0.00  0.00  0.00
  YS02001774YS02001770    1.00   0.00  0.13  0.00  0.72  0.00  0.15  0.00  0.02  0.00
  YS02001779YS02001774    1.00   0.00  0.00  0.00  1.00  0.00  0.00  0.00  0.75  0.00
  YS02001783YS02001784    1.00   0.00  0.17  0.00  0.83  0.00  0.00  0.00  0.54  0.00
  YS02001784YS02001785    1.00   0.00  0.00  0.00  1.00  0.00  0.00  0.00  0.15  0.00
  YS02001786YS02001788    1.00   0.00  0.00  0.00  0.80  0.20  0.00  0.00  0.00  0.00
  YS02001788YS02001790    1.00   0.00  0.00  0.00  0.20  0.80  0.00  0.00  0.77  0.00
  YS02001790YS02001791    1.00   0.00  0.00  0.00  0.01  0.99  0.00  0.00  0.15  0.00
  YS02001791YS02001793    1.00   0.00  0.00  0.00  0.00  1.00  0.00  0.00  0.01  0.00
  YS02001793JiankangQianchi    1.00   0.00  0.00  0.00  0.41  0.59  0.00  0.00  0.75  0.00
  YS02001882YS02001884    1.00   0.15  0.01  0.00  0.85  0.00  0.00  0.00  0.00  0.00
  YS02001884YS02001887    1.00   0.06  0.05  0.00  0.89  0.00  0.00  0.00  0.00  0.00
  YS02001887YS02001890    1.00   0.00  0.00  0.00  0.97  0.00  0.03  0.00  0.00  0.00
  YS02001890YS02001895    1.00   0.00  0.15  0.00  0.85  0.00  0.00  0.00  0.00  0.00
  YS02001895YS02001898    1.00   0.15  0.00  0.00  0.83  0.00  0.01  0.00  0.00  0.00
  YS02001898YS02001901    1.00   0.16  0.00  0.00  0.84  0.00  0.00  0.00  0.01  0.00
  YS02001901YS02001904    1.00   0.16  0.00  0.00  0.84  0.00  0.00  0.00  0.00  0.00
  YS02001904YS02001907    1.00   0.00  0.15  0.00  0.84  0.00  0.00  0.00  0.00  0.00
  YS02001907YS02006553    1.00   0.00  0.02  0.00  0.98  0.00  0.00  0.00  0.00  0.00
  YS02001910YS02001907    1.00   0.00  0.00  0.00  0.97  0.00  0.00  0.03  0.12  0.00
  YS02001915YS02001910    1.00   0.00  0.00  0.00  0.97  0.03  0.00  0.00  0.13  0.00
  YS02001918YS02001915    1.00   0.00  0.01  0.00  0.98  0.02  0.00  0.00  0.70  0.00
  YS02001920YS02001918    1.00   0.00  0.01  0.00  0.99  0.00  0.00  0.00  0.00  0.00
  YS02001923YS02001920    1.00   0.00  0.00  0.00  1.00  0.00  0.00  0.00  0.89  0.00
  YS02001926YS02001923    1.00   0.00  0.07  0.00  0.09  0.00  0.83  0.00  0.00  0.00
  YS02001929YS02001926    1.00   0.00  0.13  0.00  0.87  0.00  0.00  0.00  0.79  0.00
  YS02006553YS02006556    1.00   0.01  0.00  0.00  0.99  0.00  0.00  0.00  0.03  0.00
  YS02006556YS02006558    1.00   0.00  0.00  0.00  1.00  0.00  0.00  0.00  0.00  0.00
  YS02006558YS02006561    1.00   0.17  0.00  0.00  0.09  0.75  0.00  0.00  0.17  0.00
  YS02006561YS02001783    1.00   0.17  0.00  0.00  0.13  0.71  0.00  0.00  0.65  0.00
  YS02163301YS02001633    1.00   0.00  0.14  0.00  0.86  0.00  0.00  0.00  0.00  0.00
  YS02163601YS02164001    1.00   0.00  0.08  0.00  0.92  0.00  0.00  0.00  0.00  0.00
  YS02164001YS02001641    1.00   0.01  0.08  0.00  0.92  0.00  0.00  0.00  0.05  0.00
  
  
  *************************
  Conduit Surcharge Summary
  *************************
  
  ----------------------------------------------------------------------------
                                                           Hours        Hours 
                         --------- Hours Full --------   Above Full   Capacity
  Conduit                Both Ends  Upstream  Dnstream   Normal Flow   Limited
  ----------------------------------------------------------------------------
  WS02003072WS02003073        0.01      0.01      0.01      0.99         0.01
  WS02004404WS02004405        0.01      0.01      0.01      2.81         0.01
  WS02006109WS02006110        0.01      0.01      2.17      0.01         0.01
  WS02006110WS02006113        0.01      0.01      2.15      0.01         0.01
  WS02006111WS02006112        0.01      0.01      2.22      0.01         0.01
  WS02006112WS02006115        0.01      0.01      0.58      0.01         0.01
  WS02006228WS02006109        2.08      2.17      2.08      2.48         2.08
  WS02006229WS02006228        2.07      2.10      2.07      2.34         2.06
  WS02006230WS02006229        2.24      2.28      2.24      3.16         2.24
  WS02006231WS02006230        0.01      0.01      0.34      2.89         0.01
  WS02006232WS02006231        0.14      0.14      2.18      0.35         0.01
  WS02006234WS02006232        1.78      1.78      2.18      0.15         0.42
  WS02006235WS02006234        0.92      0.99      1.87      2.77         0.24
  WS02006238WS02006235        2.05      2.05      2.20      0.01         0.13
  WS02006239WS02006238        2.13      2.19      2.14      2.33         1.73
  WS02006240WS02006239        2.03      2.12      2.03      2.35         1.72
  WS02006242WS02006240        2.09      2.09      2.25      2.45         0.05
  WS02006243WS02006242        2.13      2.13      2.21      0.01         0.37
  WS02006245WS02006243        2.12      2.13      2.12      2.43         1.73
  WS02006247WS02006245        2.12      2.15      2.12      2.56         1.92
  WS02006248WS02006247        2.12      2.12      2.14      0.01         0.56
  WS02006249WS02006248        2.10      2.11      2.13      2.54         0.01
  WS02006251WS02006249        2.12      2.13      2.13      2.52         1.64
  WS02006252WS02006251        2.56      2.56      2.56      2.56         0.01
  WS02006256WS02006235        2.33      2.82      4.30      0.57         0.12
  YS02001580YS02001583        0.96      0.96      0.99      0.01         0.01
  YS02001583YS02001586        0.96      0.96      1.07      0.01         0.01
  YS02001586YS02001590        1.08      1.08      1.17      0.01         0.01
  YS02001590YS02001593        1.17      1.17      1.19      1.25         0.01
  YS02001593YS02001596        1.18      1.18      1.30      0.01         0.01
  YS02001596YS02001600        1.37      1.37      1.46      0.01         0.01
  YS02001600YS02001601        1.51      1.51      1.75      0.01         0.01
  YS02001601YS02001602        1.65      1.65      1.79      1.48         0.01
  YS02001602YS02001605        1.61      1.61      1.65      2.51         0.01
  YS02001605YS02001607        1.57      1.61      1.57      1.72         1.57
  YS02001607YS02001610        1.10      1.10      1.14      0.01         0.01
  YS02001610YS02001613        1.10      1.10      1.14      0.01         0.01
  YS02001613YS02001616        1.04      1.04      1.10      0.01         0.01
  YS02001616YS02001619        1.03      1.03      1.04      0.19         0.06
  YS02001619YS02001622        1.03      1.03      1.03      1.22         1.01
  YS02001622YS02001625        1.03      1.03      1.25      0.01         0.01
  YS02001625YS02001629        0.93      0.93      1.25      0.01         0.01
  YS02001629YS02163301        1.22      1.22      1.24      0.51         0.39
  YS02001633YS02163601        1.26      1.26      1.29      0.62         0.61
  YS02001641YS02001644        1.10      1.16      1.10      1.80         1.09
  YS02001644YS02001647        0.80      0.80      1.10      0.05         0.01
  YS02001647YS02001649        0.80      0.80      0.94      0.01         0.01
  YS02001649YS02001757        0.93      0.94      0.98      0.48         0.40
  YS02001652YS02001649        0.72      0.72      0.94      0.01         0.01
  YS02001655YS02001652        0.49      0.49      0.68      0.01         0.01
  YS02001658YS02001655        0.34      0.34      0.49      0.01         0.01
  YS02001661YS02001658        0.17      0.17      0.34      0.01         0.01
  YS02001664YS02001661        0.04      0.04      0.22      0.01         0.01
  YS02001745YS02001748        0.02      0.02      0.24      0.01         0.01
  YS02001748YS02001751        0.31      0.31      0.38      0.01         0.01
  YS02001751YS02001754        0.38      0.38      0.52      0.01         0.01
  YS02001754YS02001757        0.58      0.58      0.98      0.01         0.01
  YS02001757CaochengTiaoxuchi        0.63      0.98      1.11      0.67         0.26
  YS02001759YS02001757        0.86      0.86      0.98      0.19         0.20
  YS02001762YS02001759        0.82      0.82      0.86      0.01         0.04
  YS02001765YS02001762        0.76      0.76      0.82      0.01         0.01
  YS02001767YS02001765        0.72      0.72      0.76      0.02         0.06
  YS02001770YS02001767        0.72      0.72      0.72      0.77         0.57
  YS02001774YS02001770        0.69      0.69      0.80      0.01         0.01
  YS02001779YS02001774        0.53      0.53      0.80      0.01         0.01
  YS02001783YS02001784        0.77      0.80      0.77      0.99         0.77
  YS02001784YS02001785        0.64      0.77      0.64      1.32         0.64
  YS02001786YS02001788        0.01      0.64      0.01      1.14         0.01
  YS02001790YS02001791        0.01      0.01      0.01      0.75         0.01
  YS02001882YS02001884        0.73      0.73      0.74      0.01         0.01
  YS02001884YS02001887        0.77      0.77      0.78      0.01         0.01
  YS02001887YS02001890        0.80      0.80      0.82      0.26         0.01
  YS02001890YS02001895        0.72      0.72      0.84      0.01         0.01
  YS02001895YS02001898        0.71      0.71      0.72      0.01         0.01
  YS02001898YS02001901        0.72      0.72      0.77      0.01         0.01
  YS02001901YS02001904        0.76      0.76      0.77      0.01         0.01
  YS02001904YS02001907        0.76      0.76      1.11      0.01         0.01
  YS02001907YS02006553        1.34      1.34      1.43      0.01         0.01
  YS02001910YS02001907        0.83      0.83      1.08      0.16         0.16
  YS02001915YS02001910        0.73      0.73      0.83      0.01         0.02
  YS02001918YS02001915        0.62      0.62      0.73      0.01         0.01
  YS02001920YS02001918        0.62      0.62      0.64      0.01         0.01
  YS02001923YS02001920        0.57      0.57      0.64      0.01         0.01
  YS02001926YS02001923        0.28      0.28      0.32      0.11         0.01
  YS02001929YS02001926        0.17      0.17      0.32      0.01         0.01
  YS02006553YS02006556        0.95      0.95      1.11      0.01         0.01
  YS02006556YS02006558        1.03      1.03      1.13      0.01         0.01
  YS02006558YS02006561        0.66      0.94      0.66      1.25         0.66
  YS02006561YS02001783        0.59      0.59      0.80      0.01         0.01
  YS02163301YS02001633        1.24      1.24      1.28      0.01         0.01
  YS02163601YS02164001        1.17      1.17      1.29      0.24         0.01
  YS02164001YS02001641        1.16      1.17      1.16      1.06         0.87
  
  
  ***************
  Pumping Summary
  ***************
  
  ---------------------------------------------------------------------------------------------------------
                                                  Min       Avg       Max     Total     Power    % Time Off
                        Percent   Number of      Flow      Flow      Flow    Volume     Usage    Pump Curve
  Pump                 Utilized   Start-Ups       LPS       LPS       LPS  10^6 ltr     Kw-hr    Low   High
  ---------------------------------------------------------------------------------------------------------
  CC-R1                   32.35           4      0.00    683.00    683.00     6.297    108.51    0.0   56.5
  CC-R2                   32.35           4      0.00    683.00    683.00     6.297    108.51    0.0   56.5
  CC-S1                   32.35           4      0.00    200.00    200.00     1.844     12.60    0.0   20.9
  CC-S2                   32.35           4      0.00    200.00    200.00     1.844     12.60    0.0   20.9
  JK-R1                    8.40         343      0.00   1000.00   1000.00     2.395      6.41    0.0    0.0
  JK-R2                    8.40         343      0.00   1000.00   1000.00     2.395      6.41    0.0    0.0
  JK-S                     8.40         343      0.00    300.00    300.00     0.719     16.24    0.0    0.0
  

  Analysis begun on:  Tue Apr 22 10:14:52 2025
  Analysis ended on:  Tue Apr 22 10:14:54 2025
  Total elapsed time: 00:00:02