
  EPA STORM WATER MANAGEMENT MODEL - VERSION 5.2 (Build 5.2.4)
  PYSWMM TOOLKIT API - VERSION v1.0 (2023-11-27)
  ------------------------------------------------------------

  WARNING 04: minimum elevation drop used for Conduit WS02004404WS02004405
  WARNING 03: negative offset ignored for Link YS02001904YS02001907
  
  ****************
  Analysis Options
  ****************
  Flow Units ............... LPS
  Process Models:
    Rainfall/Runoff ........ YES
    RDII ................... NO
    Snowmelt ............... NO
    Groundwater ............ NO
    Flow Routing ........... YES
    Ponding Allowed ........ NO
    Water Quality .......... NO
  Infiltration Method ...... HORTON
  Flow Routing Method ...... DYNWAVE
  Surcharge Method ......... EXTRAN
  Starting Date ............ 08/28/2015 08:00:00
  Ending Date .............. 08/28/2015 16:00:00
  Antecedent Dry Days ...... 8.0
  Report Time Step ......... 00:01:00
  Wet Time Step ............ 00:01:00
  Dry Time Step ............ 00:01:00
  Routing Time Step ........ 30.00 sec
  Variable Time Step ....... YES
  Maximum Trials ........... 8
  Number of Threads ........ 4
  Head Tolerance ........... 0.001500 m
  
  
  **************************        Volume         Depth
  Runoff Quantity Continuity     hectare-m            mm
  **************************     ---------       -------
  Total Precipitation ......         2.988        90.085
  Evaporation Loss .........         0.000         0.000
  Infiltration Loss ........         0.102         3.067
  Surface Runoff ...........         2.854        86.049
  Final Storage ............         0.033         0.995
  Continuity Error (%) .....        -0.029
  
  
  **************************        Volume        Volume
  Flow Routing Continuity        hectare-m      10^6 ltr
  **************************     ---------     ---------
  Dry Weather Inflow .......         0.025         0.251
  Wet Weather Inflow .......         2.855        28.552
  Groundwater Inflow .......         0.000         0.000
  RDII Inflow ..............         0.000         0.000
  External Inflow ..........         0.083         0.834
  External Outflow .........         1.756        17.560
  Flooding Loss ............         1.257        12.572
  Evaporation Loss .........         0.000         0.000
  Exfiltration Loss ........         0.000         0.000
  Initial Stored Volume ....         0.243         2.431
  Final Stored Volume ......         0.199         1.988
  Continuity Error (%) .....        -0.162
  
  
  *************************
  Highest Continuity Errors
  *************************
  Node YS02001583 (-4.99%)
  Node YS02001884 (4.86%)
  
  
  ***************************
  Time-Step Critical Elements
  ***************************
  Link WS02006252WS02006251 (51.61%)
  Link WS02006238WS02006235 (12.34%)
  Link WS02004404WS02004405 (10.51%)
  Link WS02006235WS02006234 (7.54%)
  Link YS02001791YS02001793 (6.00%)
  
  
  ********************************
  Highest Flow Instability Indexes
  ********************************
  Link WS02006113WS02006111 (53)
  Link WS02006111WS02006112 (25)
  Link WS02006238WS02006235 (12)
  Link WS02006256WS02006235 (12)
  Link YS02001607YS02001610 (10)
  
  
  *********************************
  Most Frequent Nonconverging Nodes
  *********************************
  Node CC-1 (9.77%)
  Node CC-2 (9.77%)
  Node JK-1 (9.77%)
  Node JK-2 (9.77%)
  Node WSC (9.77%)
  
  
  *************************
  Routing Time Step Summary
  *************************
  Minimum Time Step           :     0.00 sec
  Average Time Step           :     1.73 sec
  Maximum Time Step           :     7.04 sec
  % of Time in Steady State   :     0.00
  Average Iterations per Step :     2.89
  % of Steps Not Converging   :     9.77
  Time Step Frequencies       :
     30.000 - 13.228 sec      :     0.00 %
     13.228 -  5.833 sec      :     7.29 %
      5.833 -  2.572 sec      :    14.68 %
      2.572 -  1.134 sec      :    19.76 %
      1.134 -  0.500 sec      :    58.27 %
  
  
  ***************************
  Subcatchment Runoff Summary
  ***************************
  
  ------------------------------------------------------------------------------------------------------------------------------
                            Total      Total      Total      Total     Imperv       Perv      Total       Total     Peak  Runoff
                           Precip      Runon       Evap      Infil     Runoff     Runoff     Runoff      Runoff   Runoff   Coeff
  Subcatchment                 mm         mm         mm         mm         mm         mm         mm    10^6 ltr      LPS
  ------------------------------------------------------------------------------------------------------------------------------
  sub60                     90.08       0.00       0.00       1.83      78.09       8.98      87.07        1.14   906.32   0.967
  sub61                     90.08       0.00       0.00       2.66      73.65      12.66      86.32        1.58  1260.88   0.958
  sub62                     90.08       0.00       0.00       1.22      81.60       5.99      87.59        2.40  1776.03   0.972
  sub63                     90.08       0.00       0.00       4.91      63.00      21.23      84.23        1.91  1426.86   0.935
  sub64                     90.08       0.00       0.00       2.48      75.38      11.04      86.41        2.08  1457.36   0.959
  sub65                     90.08       0.00       0.00       2.15      77.13       9.57      86.70        2.39  1626.01   0.962
  sub66                     90.08       0.00       0.00       6.12      62.89      20.01      82.90        3.87  2154.00   0.920
  sub67                     90.08       0.00       0.00       1.18      81.65       6.04      87.68        1.63  1370.55   0.973
  sub68                     90.08       0.00       0.00       2.20      76.30      10.42      86.71        2.39  1819.79   0.963
  sub69                     90.08       0.00       0.00       1.97      76.47      11.55      88.02        3.26  2158.58   0.977
  sub70                     90.08       0.00       0.00       6.66      59.30      23.97      83.27        2.41  1201.28   0.924
  sub71                     90.08       0.00       0.00       1.25      81.56       5.96      87.52        2.29  1570.26   0.972
  sub72                     90.08       0.00       0.00       1.11      82.39       5.19      87.58        1.20   758.68   0.972
  
  
  ******************
  Node Depth Summary
  ******************
  
  ---------------------------------------------------------------------------------
                                 Average  Maximum  Maximum  Time of Max    Reported
                                   Depth    Depth      HGL   Occurrence   Max Depth
  Node                 Type       Meters   Meters   Meters  days hr:min      Meters
  ---------------------------------------------------------------------------------
  WS02003060           JUNCTION     0.25     0.38     5.32     0  03:07        0.38
  WS02003066           JUNCTION     0.20     0.30     5.85     0  03:06        0.30
  WS02003067           JUNCTION     0.52     0.70     6.02     0  03:06        0.70
  WS02003069           JUNCTION     0.27     0.43     5.01     0  03:07        0.43
  WS02003072           JUNCTION     0.34     0.50     4.87     0  03:06        0.50
  WS02003073           JUNCTION     0.19     0.30     4.36     0  03:08        0.30
  WS02004401           JUNCTION     0.61     0.85     6.85     0  03:03        0.85
  WS02004402           JUNCTION     0.64     0.88     6.84     0  03:03        0.88
  WS02004403           JUNCTION     0.67     0.89     6.82     0  03:04        0.89
  WS02004404           JUNCTION     0.74     0.96     6.81     0  03:04        0.96
  WS02004405           JUNCTION     0.74     0.96     6.81     0  03:04        0.96
  WS02004406           JUNCTION     0.75     0.96     6.79     0  03:04        0.96
  WS02004407           JUNCTION     0.19     0.30     6.61     0  03:04        0.30
  WS02004409           JUNCTION     0.42     0.67     6.44     0  03:04        0.67
  WS02004410           JUNCTION     0.44     0.68     6.40     0  03:05        0.68
  WS02004411           JUNCTION     0.46     0.69     6.37     0  03:05        0.69
  WS02004412           JUNCTION     0.48     0.70     6.34     0  03:05        0.70
  WS02004413           JUNCTION     0.64     0.86     6.33     0  03:06        0.86
  WS02006109           JUNCTION     0.68     1.67     8.28     0  02:48        1.67
  WS02006110           JUNCTION     0.68     2.04     8.62     0  02:48        2.04
  WS02006111           JUNCTION     0.19     0.29     6.99     0  02:52        0.29
  WS02006112           JUNCTION     0.77     1.08     6.96     0  02:38        1.06
  WS02006113           JUNCTION     0.29     0.46     7.35     0  02:49        0.46
  WS02006115           JUNCTION     0.50     0.75     6.89     0  03:03        0.75
  WS02006116           JUNCTION     0.58     0.83     6.87     0  03:03        0.83
  WS02006228           JUNCTION     0.67     1.36     8.01     0  02:48        1.36
  WS02006229           JUNCTION     0.64     1.27     7.97     0  02:15        1.26
  WS02006230           JUNCTION     0.64     1.48     8.22     0  02:15        1.17
  WS02006231           JUNCTION     0.44     1.16     8.28     0  02:15        0.92
  WS02006232           JUNCTION     0.58     1.91     8.95     0  02:37        1.91
  WS02006234           JUNCTION     0.50     1.64     8.80     0  02:37        1.64
  WS02006235           JUNCTION     0.54     1.84     9.00     0  02:26        1.55
  WS02006238           JUNCTION     0.57     1.90     9.04     0  02:26        1.59
  WS02006239           JUNCTION     0.54     1.88     9.09     0  02:26        1.51
  WS02006240           JUNCTION     0.51     1.77     9.06     0  02:26        1.39
  WS02006242           JUNCTION     0.59     1.55     8.82     0  02:26        1.38
  WS02006243           JUNCTION     0.49     1.45     8.87     0  02:47        1.20
  WS02006245           JUNCTION     0.49     1.37     8.86     0  02:47        1.25
  WS02006247           JUNCTION     0.51     1.30     8.80     0  02:26        1.26
  WS02006248           JUNCTION     0.47     1.10     8.69     0  02:26        1.10
  WS02006249           JUNCTION     0.50     1.09     8.69     0  02:00        1.09
  WS02006251           JUNCTION     0.50     1.35     9.02     0  02:47        1.13
  WS02006252           JUNCTION     0.38     1.50     9.74     0  00:00        0.69
  WS02006256           JUNCTION     0.95     2.35     9.28     0  00:00        2.35
  WSF200               JUNCTION     0.18     0.29     5.52     0  03:06        0.29
  YS02001580           JUNCTION     0.10     1.05     9.59     0  01:50        0.77
  YS02001583           JUNCTION     0.13     0.97     9.47     0  01:50        0.82
  YS02001586           JUNCTION     0.21     1.13     9.30     0  01:50        1.13
  YS02001590           JUNCTION     0.31     1.40     9.26     0  01:48        1.37
  YS02001593           JUNCTION     0.24     1.32     9.18     0  01:50        1.29
  YS02001596           JUNCTION     0.32     1.68     9.10     0  01:50        1.65
  YS02001600           JUNCTION     0.39     1.87     9.00     0  01:50        1.86
  YS02001601           JUNCTION     0.58     2.06     8.90     0  01:49        2.06
  YS02001602           JUNCTION     0.49     1.87     8.77     0  01:49        1.87
  YS02001605           JUNCTION     0.46     1.78     8.68     0  01:49        1.78
  YS02001607           JUNCTION     0.45     1.67     8.52     0  02:36        1.67
  YS02001610           JUNCTION     0.50     1.68     8.48     0  01:49        1.68
  YS02001613           JUNCTION     0.45     1.67     8.51     0  01:49        1.67
  YS02001616           JUNCTION     0.38     1.61     8.52     0  01:58        1.61
  YS02001619           JUNCTION     0.36     1.61     8.54     0  01:49        1.61
  YS02001622           JUNCTION     0.35     1.62     8.52     0  01:49        1.58
  YS02001625           JUNCTION     0.62     1.78     8.38     0  01:53        1.78
  YS02001629           JUNCTION     0.47     1.85     8.40     0  01:54        1.85
  YS02001633           JUNCTION     0.55     2.08     8.53     0  02:00        2.08
  YS02001641           JUNCTION     0.54     2.08     8.52     0  02:32        2.08
  YS02001644           JUNCTION     0.53     1.92     8.35     0  01:54        1.92
  YS02001647           JUNCTION     0.32     1.84     8.45     0  02:32        1.84
  YS02001649           JUNCTION     0.36     2.05     8.44     0  01:56        2.05
  YS02001652           JUNCTION     0.26     2.16     8.76     0  01:55        1.97
  YS02001655           JUNCTION     0.20     2.20     9.05     0  01:54        1.86
  YS02001658           JUNCTION     0.15     2.30     9.44     0  01:55        1.70
  YS02001661           JUNCTION     0.18     1.97     9.38     0  01:56        1.55
  YS02001664           JUNCTION     0.07     1.16     9.08     0  02:01        1.16
  YS02001745           JUNCTION     0.08     1.09     8.61     0  02:01        1.07
  YS02001748           JUNCTION     0.14     2.27     9.35     0  01:56        1.46
  YS02001751           JUNCTION     0.18     2.20     9.08     0  01:56        1.62
  YS02001754           JUNCTION     0.23     2.14     8.75     0  01:56        1.85
  YS02001757           JUNCTION     0.40     2.14     8.40     0  02:01        2.14
  YS02001759           JUNCTION     0.33     2.15     8.52     0  02:01        2.15
  YS02001762           JUNCTION     0.32     2.15     8.55     0  01:54        2.11
  YS02001765           JUNCTION     0.30     2.10     8.55     0  01:54        2.05
  YS02001767           JUNCTION     0.30     2.03     8.52     0  01:54        1.99
  YS02001770           JUNCTION     0.31     1.95     8.44     0  01:54        1.95
  YS02001774           JUNCTION     0.38     2.05     8.47     0  01:54        2.00
  YS02001779           JUNCTION     0.21     1.68     8.37     0  01:54        1.68
  YS02001783           JUNCTION     0.25     1.30     7.44     0  01:53        1.26
  YS02001784           JUNCTION     0.26     1.17     7.23     0  01:53        1.13
  YS02001786           JUNCTION     0.22     0.91     6.94     0  01:53        0.89
  YS02001788           JUNCTION     0.16     0.63     6.61     0  02:01        0.63
  YS02001790           JUNCTION     0.18     0.73     6.38     0  02:01        0.72
  YS02001791           JUNCTION     0.12     0.45     5.92     0  02:01        0.44
  YS02001793           JUNCTION     0.06     0.28     5.11     0  01:56        0.28
  YS02001882           JUNCTION     0.32     1.72     8.44     0  02:00        1.72
  YS02001884           JUNCTION     0.42     1.82     8.44     0  02:01        1.82
  YS02001887           JUNCTION     0.49     1.93     8.47     0  02:00        1.93
  YS02001890           JUNCTION     0.52     1.81     8.32     0  01:53        1.81
  YS02001895           JUNCTION     0.29     1.57     8.31     0  02:00        1.57
  YS02001898           JUNCTION     0.30     1.56     8.30     0  01:53        1.56
  YS02001901           JUNCTION     0.42     1.68     8.29     0  02:01        1.68
  YS02001904           JUNCTION     0.40     1.65     8.28     0  02:10        1.65
  YS02001907           JUNCTION     0.72     1.96     8.25     0  01:53        1.96
  YS02001910           JUNCTION     0.52     2.01     8.52     0  01:59        2.00
  YS02001915           JUNCTION     0.33     2.00     8.72     0  01:59        2.00
  YS02001918           JUNCTION     0.19     1.81     8.88     0  01:54        1.72
  YS02001920           JUNCTION     0.26     2.13     9.13     0  01:54        1.81
  YS02001923           JUNCTION     0.15     2.03     9.29     0  01:54        1.59
  YS02001926           JUNCTION     0.18     1.90     9.35     0  01:54        1.44
  YS02001929           JUNCTION     0.11     1.78     9.47     0  01:54        1.23
  YS02006553           JUNCTION     0.72     2.00     8.28     0  02:01        2.00
  YS02006556           JUNCTION     0.70     2.01     8.32     0  02:00        2.01
  YS02006558           JUNCTION     0.74     2.09     8.36     0  02:00        2.09
  YS02006561           JUNCTION     0.16     1.01     7.67     0  01:53        0.94
  YS02163301           JUNCTION     0.50     1.95     8.47     0  02:00        1.95
  YS02163601           JUNCTION     0.59     2.08     8.48     0  02:32        2.08
  YS02164001           JUNCTION     0.52     2.10     8.56     0  02:32        2.10
  CC-1                 OUTFALL      0.00     0.00     0.00     0  00:00        0.00
  CC-2                 OUTFALL      0.00     0.00     0.00     0  00:00        0.00
  JK-1                 OUTFALL      0.00     0.00     0.00     0  00:00        0.00
  JK-2                 OUTFALL      0.00     0.00     0.00     0  00:00        0.00
  WSC                  OUTFALL      0.19     0.30     0.97     0  03:08        0.30
  CC-storage           STORAGE      0.87     1.76     7.26     0  02:34        1.76
  JK-storage           STORAGE      3.05     4.22     5.02     0  02:31        4.19
  
  
  *******************
  Node Inflow Summary
  *******************
  
  -------------------------------------------------------------------------------------------------
                                  Maximum  Maximum                  Lateral       Total        Flow
                                  Lateral    Total  Time of Max      Inflow      Inflow     Balance
                                   Inflow   Inflow   Occurrence      Volume      Volume       Error
  Node                 Type           LPS      LPS  days hr:min    10^6 ltr    10^6 ltr     Percent
  -------------------------------------------------------------------------------------------------
  WS02003060           JUNCTION     16.53   552.91     0  03:06       0.476        6.37       0.032
  WS02003066           JUNCTION      0.00   536.29     0  03:06           0         5.9       0.021
  WS02003067           JUNCTION      0.00   536.29     0  03:06           0         5.9       0.068
  WS02003069           JUNCTION      0.32   553.10     0  03:07     0.00922        6.38       0.054
  WS02003072           JUNCTION      0.00   552.98     0  03:06           0        6.38       0.098
  WS02003073           JUNCTION      1.82   554.78     0  03:07      0.0524        6.42       0.079
  WS02004401           JUNCTION      0.00   538.04     0  02:45           0           6       0.164
  WS02004402           JUNCTION      0.00   537.65     0  03:03           0        5.99       0.168
  WS02004403           JUNCTION      0.00   537.56     0  03:03           0        5.98       0.164
  WS02004404           JUNCTION      0.16   537.27     0  03:04     0.00467        5.97       0.143
  WS02004405           JUNCTION      0.04   537.51     0  03:04      0.0011        5.97       0.200
  WS02004406           JUNCTION      0.00   537.82     0  03:04           0        5.95       0.341
  WS02004407           JUNCTION      0.00   537.19     0  03:04           0        5.93       0.016
  WS02004409           JUNCTION      0.00   536.90     0  03:04           0        5.93       0.038
  WS02004410           JUNCTION      0.00   536.68     0  03:05           0        5.93       0.066
  WS02004411           JUNCTION      0.00   536.52     0  03:05           0        5.93       0.087
  WS02004412           JUNCTION      0.00   536.43     0  03:05           0        5.92       0.118
  WS02004413           JUNCTION      0.00   536.45     0  03:06           0        5.92       0.213
  WS02006109           JUNCTION      1.23   560.03     0  02:15      0.0354        6.05       0.173
  WS02006110           JUNCTION      0.00   561.26     0  02:15           0        6.04       0.099
  WS02006111           JUNCTION      0.00   561.73     0  02:17           0        6.03       0.006
  WS02006112           JUNCTION      0.00   543.27     0  02:52           0        6.03       0.288
  WS02006113           JUNCTION      0.00   571.93     0  02:16           0        6.03       0.031
  WS02006115           JUNCTION      0.00   562.18     0  02:44           0        6.01       0.103
  WS02006116           JUNCTION      0.00   542.61     0  02:44           0           6       0.091
  WS02006228           JUNCTION      0.00   557.68     0  02:15           0        6.01       0.056
  WS02006229           JUNCTION      0.00   558.41     0  02:15           0        6.02       0.069
  WS02006230           JUNCTION     10.28   601.19     0  02:37       0.296        6.02       0.052
  WS02006231           JUNCTION      0.00   574.86     0  02:36           0        5.73       0.017
  WS02006232           JUNCTION      0.00   574.05     0  02:36           0        5.73       0.115
  WS02006234           JUNCTION      0.00   569.57     0  02:36           0        5.73      -0.135
  WS02006235           JUNCTION      0.00   562.85     0  02:37           0        5.76       0.139
  WS02006238           JUNCTION      0.00   424.67     0  02:40           0           5      -0.135
  WS02006239           JUNCTION      0.00   433.16     0  02:01           0        4.98      -0.133
  WS02006240           JUNCTION      0.00   421.72     0  02:01           0        4.96      -0.030
  WS02006242           JUNCTION      0.00   421.62     0  02:01           0        4.96      -0.014
  WS02006243           JUNCTION      0.00   422.64     0  02:01           0        4.95      -0.118
  WS02006245           JUNCTION      0.00   423.22     0  02:01           0        4.95       0.162
  WS02006247           JUNCTION      0.00   423.39     0  02:01           0        4.95       0.002
  WS02006248           JUNCTION      0.00   424.17     0  02:01           0        4.95       0.002
  WS02006249           JUNCTION      0.00   459.02     0  00:00           0        5.12       0.156
  WS02006251           JUNCTION      0.08   405.48     0  03:10     0.00222        5.12       0.023
  WS02006252           JUNCTION      0.00   400.00     0  00:00           0        5.12      -0.094
  WS02006256           JUNCTION      0.00   300.00     0  00:00           0         1.1      -0.793
  WSF200               JUNCTION      0.00   536.32     0  03:06           0         5.9       0.006
  YS02001580           JUNCTION      0.00   122.11     0  01:50           0     0.00426      -0.397
  YS02001583           JUNCTION      0.00   154.53     0  01:50           0      0.0153      -4.757
  YS02001586           JUNCTION   1201.28  1201.29     0  02:03        2.41        2.42       0.044
  YS02001590           JUNCTION      0.00   317.90     0  02:16           0        1.53      -0.024
  YS02001593           JUNCTION      0.00   318.01     0  02:01           0        1.53       0.007
  YS02001596           JUNCTION      0.00   317.99     0  02:30           0        1.53      -0.012
  YS02001600           JUNCTION      0.00   317.94     0  02:03           0        1.53       0.009
  YS02001601           JUNCTION   2158.58  2476.31     0  02:02        3.26        4.79       0.005
  YS02001602           JUNCTION      0.00   517.89     0  01:49           0        2.46       0.016
  YS02001605           JUNCTION      0.00   518.10     0  01:49           0        2.31       0.024
  YS02001607           JUNCTION      0.00   518.29     0  01:49           0        2.31       0.085
  YS02001610           JUNCTION      0.00   953.91     0  02:08           0        2.91       0.071
  YS02001613           JUNCTION      0.00   617.55     0  02:09           0        2.26       0.071
  YS02001616           JUNCTION      0.00   617.56     0  02:08           0        2.26       0.016
  YS02001619           JUNCTION   2154.00  2154.00     0  02:03        3.87        5.52      -0.001
  YS02001622           JUNCTION      0.00  1053.86     0  02:03           0        4.74      -0.002
  YS02001625           JUNCTION      0.00  1505.18     0  02:08           0        5.14       0.171
  YS02001629           JUNCTION      0.00   930.98     0  01:53           0        3.83       0.014
  YS02001633           JUNCTION   1626.21  1626.21     0  02:02        2.39        5.62       0.058
  YS02001641           JUNCTION      0.00  1387.30     0  01:53           0        5.02       0.052
  YS02001644           JUNCTION   1457.40  2635.60     0  02:02        2.08        7.19       0.035
  YS02001647           JUNCTION      0.00  1813.42     0  01:53           0        5.84       0.002
  YS02001649           JUNCTION      0.00  2069.85     0  01:53           0        7.67      -0.005
  YS02001652           JUNCTION      0.00  1434.81     0  02:01           0        1.92      -0.073
  YS02001655           JUNCTION      0.15  1435.60     0  02:01     0.00443        1.92      -0.010
  YS02001658           JUNCTION      0.00  1435.80     0  02:01           0        1.91      -0.034
  YS02001661           JUNCTION      0.00  1435.66     0  02:01           0        1.91      -0.002
  YS02001664           JUNCTION   1426.86  1426.86     0  02:02        1.91        1.91      -0.004
  YS02001745           JUNCTION    906.33   906.33     0  02:01        1.14        1.14       0.140
  YS02001748           JUNCTION      0.04   920.73     0  02:01      0.0013        1.14      -0.240
  YS02001751           JUNCTION      0.01   921.32     0  02:01    0.000317        1.15       0.073
  YS02001754           JUNCTION      0.26   921.13     0  02:01     0.00749        1.16      -0.133
  YS02001757           JUNCTION      0.00  3495.38     0  01:56           0          12       0.038
  YS02001759           JUNCTION   1260.92  1465.10     0  02:00        1.59        3.27      -0.014
  YS02001762           JUNCTION      0.00   769.95     0  01:56           0        1.68      -0.009
  YS02001765           JUNCTION      0.00   770.03     0  01:56           0        1.68      -0.011
  YS02001767           JUNCTION      0.54   770.09     0  01:56      0.0154        1.68      -0.004
  YS02001770           JUNCTION   1776.18  1776.18     0  02:02        2.41        2.45      -0.027
  YS02001774           JUNCTION      0.00   851.34     0  02:03           0       0.622       0.172
  YS02001779           JUNCTION      0.01   851.26     0  02:03    0.000144       0.578      -0.106
  YS02001783           JUNCTION      0.00  1181.86     0  02:00           0        4.56       0.004
  YS02001784           JUNCTION      1.06  1183.14     0  02:01      0.0305        4.59       0.010
  YS02001786           JUNCTION      0.06  1182.98     0  02:01     0.00162        4.59       0.014
  YS02001788           JUNCTION      0.07  1183.58     0  02:00     0.00204        4.59       0.007
  YS02001790           JUNCTION      0.15  1198.41     0  02:00     0.00446        4.59       0.032
  YS02001791           JUNCTION      0.00  1309.28     0  02:01           0        4.59      -0.030
  YS02001793           JUNCTION      0.00  1273.69     0  02:00           0        4.59       0.005
  YS02001882           JUNCTION      0.00    42.59     0  01:51           0      0.0131       3.937
  YS02001884           JUNCTION      0.00    74.61     0  01:51           0      0.0495       5.110
  YS02001887           JUNCTION   1371.00  1371.77     0  02:01        1.64        1.68       0.257
  YS02001890           JUNCTION      0.00  1372.39     0  02:01           0        1.64       0.295
  YS02001895           JUNCTION      0.00   518.26     0  02:08           0        1.28       0.136
  YS02001898           JUNCTION      0.00   518.30     0  02:10           0        1.28      -0.002
  YS02001901           JUNCTION      0.00   518.95     0  02:10           0        1.28       0.252
  YS02001904           JUNCTION      0.00   518.32     0  02:10           0        1.28       0.211
  YS02001907           JUNCTION      0.00  3157.66     0  02:02           0        4.98       0.344
  YS02001910           JUNCTION      0.00  1993.11     0  02:03           0         3.5       0.203
  YS02001915           JUNCTION   1570.28  2329.37     0  02:02        2.29        3.61       0.036
  YS02001918           JUNCTION      0.00   763.71     0  02:03           0        1.35      -0.013
  YS02001920           JUNCTION      2.87   763.31     0  02:03      0.0827        1.34       0.064
  YS02001923           JUNCTION      0.04   759.60     0  02:03     0.00109        1.24      -0.037
  YS02001926           JUNCTION      0.05   759.25     0  02:03      0.0015        1.22      -0.028
  YS02001929           JUNCTION    758.68   758.68     0  02:03         1.2        1.21      -0.019
  YS02006553           JUNCTION      0.00   802.25     0  02:24           0        2.59       0.467
  YS02006556           JUNCTION      0.00   803.17     0  02:23           0        2.59       0.309
  YS02006558           JUNCTION   1820.67  1820.67     0  02:02        2.41        4.78       0.073
  YS02006561           JUNCTION      0.00  1182.43     0  02:01           0        4.56      -0.002
  YS02163301           JUNCTION      0.00   930.38     0  01:53           0        3.82       0.034
  YS02163601           JUNCTION      0.11  1391.91     0  01:53     0.00317        5.02       0.092
  YS02164001           JUNCTION      0.00  1390.34     0  01:53           0        5.02       0.038
  CC-1                 OUTFALL       0.00   683.00     0  00:00           0        4.05       0.000
  CC-2                 OUTFALL       0.00   683.00     0  00:00           0        3.65       0.000
  JK-1                 OUTFALL       0.00  1000.00     0  00:00           0        2.05       0.000
  JK-2                 OUTFALL       0.00  1000.00     0  00:00           0        1.39       0.000
  WSC                  OUTFALL       0.00   554.77     0  03:08           0        6.42       0.000
  CC-storage           STORAGE       0.00  3495.15     0  01:56           0        14.2      -0.218
  JK-storage           STORAGE       0.00  1323.03     0  02:00           0        4.74       0.172
  
  
  **********************
  Node Surcharge Summary
  **********************
  
  Surcharging occurs when water rises above the top of the highest conduit.
  ---------------------------------------------------------------------
                                               Max. Height   Min. Depth
                                   Hours       Above Crown    Below Rim
  Node                 Type      Surcharged         Meters       Meters
  ---------------------------------------------------------------------
  WS02006109           JUNCTION        2.19          0.845        0.975
  WS02006110           JUNCTION        0.54          1.128        0.722
  WS02006112           JUNCTION        0.58          0.079        1.601
  WS02006228           JUNCTION        2.17          0.534        1.666
  WS02006229           JUNCTION        2.22          0.474        1.976
  WS02006230           JUNCTION        0.56          0.397        1.173
  WS02006231           JUNCTION        0.64          0.447        1.083
  WS02006232           JUNCTION        2.40          1.210        0.270
  WS02006234           JUNCTION        0.94          0.922        0.318
  WS02006235           JUNCTION        2.19          1.127        0.163
  WS02006238           JUNCTION        2.28          1.180        0.250
  WS02006239           JUNCTION        2.21          1.143        0.147
  WS02006240           JUNCTION        2.24          1.057        0.333
  WS02006242           JUNCTION        2.43          0.820        0.000
  WS02006243           JUNCTION        2.27          0.740        0.030
  WS02006245           JUNCTION        2.26          0.661        0.189
  WS02006247           JUNCTION        2.30          0.592        0.168
  WS02006248           JUNCTION        2.23          0.380        0.000
  WS02006249           JUNCTION        2.27          0.390        0.000
  WS02006251           JUNCTION        0.69          0.322        0.858
  WS02006252           JUNCTION        2.74          1.100        0.000
  WS02006256           JUNCTION        5.92          2.050        0.000
  YS02001580           JUNCTION        0.81          0.450        0.000
  YS02001583           JUNCTION        0.82          0.333        0.167
  YS02001586           JUNCTION        0.94          0.510        0.000
  YS02001590           JUNCTION        1.01          0.750        0.000
  YS02001593           JUNCTION        1.01          0.699        0.141
  YS02001596           JUNCTION        1.13          0.952        0.118
  YS02001600           JUNCTION        1.30          1.190        0.000
  YS02001601           JUNCTION        1.58          1.440        0.000
  YS02001602           JUNCTION        1.49          1.270        0.000
  YS02001605           JUNCTION        1.45          1.180        0.000
  YS02001607           JUNCTION        1.01          0.669        0.011
  YS02001610           JUNCTION        1.03          0.680        0.000
  YS02001613           JUNCTION        1.00          0.670        0.030
  YS02001616           JUNCTION        0.96          0.610        0.000
  YS02001619           JUNCTION        0.94          0.610        0.000
  YS02001622           JUNCTION        0.94          0.620        0.000
  YS02001625           JUNCTION        1.13          0.780        0.000
  YS02001629           JUNCTION        0.89          0.470        0.000
  YS02001633           JUNCTION        1.16          1.060        0.000
  YS02001641           JUNCTION        1.11          1.084        0.016
  YS02001644           JUNCTION        1.08          0.920        0.000
  YS02001647           JUNCTION        0.86          0.838        0.062
  YS02001649           JUNCTION        1.00          1.050        0.000
  YS02001652           JUNCTION        0.78          1.130        0.000
  YS02001655           JUNCTION        0.59          1.200        0.000
  YS02001658           JUNCTION        0.35          1.300        0.000
  YS02001661           JUNCTION        0.15          0.902        0.488
  YS02001664           JUNCTION        0.01          0.155        1.155
  YS02001745           JUNCTION        0.03          0.092        1.258
  YS02001748           JUNCTION        0.29          1.190        0.000
  YS02001751           JUNCTION        0.45          1.200        0.000
  YS02001754           JUNCTION        0.68          1.092        0.058
  YS02001757           JUNCTION        1.07          1.141        0.069
  YS02001759           JUNCTION        0.97          1.154        0.056
  YS02001762           JUNCTION        0.93          1.150        0.000
  YS02001765           JUNCTION        0.88          1.100        0.000
  YS02001767           JUNCTION        0.85          1.030        0.000
  YS02001770           JUNCTION        0.82          0.920        0.000
  YS02001774           JUNCTION        0.91          1.050        0.000
  YS02001779           JUNCTION        0.67          0.680        0.000
  YS02001783           JUNCTION        0.68          0.499        1.101
  YS02001784           JUNCTION        0.65          0.365        1.125
  YS02001786           JUNCTION        0.54          0.108        1.322
  YS02001882           JUNCTION        0.62          0.724        0.106
  YS02001884           JUNCTION        0.63          0.761        0.109
  YS02001887           JUNCTION        0.67          0.880        0.070
  YS02001890           JUNCTION        0.68          0.760        0.000
  YS02001895           JUNCTION        0.61          0.567        0.183
  YS02001898           JUNCTION        0.60          0.534        0.206
  YS02001901           JUNCTION        0.65          0.678        0.192
  YS02001904           JUNCTION        0.64          0.645        0.205
  YS02001907           JUNCTION        0.90          0.950        0.000
  YS02001910           JUNCTION        0.71          1.014        0.086
  YS02001915           JUNCTION        0.62          1.000        0.000
  YS02001918           JUNCTION        0.53          0.810        0.000
  YS02001920           JUNCTION        0.54          1.126        0.014
  YS02001923           JUNCTION        0.24          0.820        0.000
  YS02001926           JUNCTION        0.26          0.900        0.000
  YS02001929           JUNCTION        0.14          0.780        0.000
  YS02006553           JUNCTION        0.92          0.997        0.193
  YS02006556           JUNCTION        0.80          0.967        0.383
  YS02006558           JUNCTION        0.79          0.991        0.409
  YS02006561           JUNCTION        0.49          0.211        0.939
  YS02163301           JUNCTION        1.14          0.954        0.076
  YS02163601           JUNCTION        1.20          1.080        0.000
  YS02164001           JUNCTION        1.11          1.100        0.000
  
  
  *********************
  Node Flooding Summary
  *********************
  
  Flooding refers to all water that overflows a node, whether it ponds or not.
  --------------------------------------------------------------------------
                                                             Total   Maximum
                                 Maximum   Time of Max       Flood    Ponded
                        Hours       Rate    Occurrence      Volume     Depth
  Node                 Flooded       LPS   days hr:min    10^6 ltr    Meters
  --------------------------------------------------------------------------
  WS02006242              0.01     19.44      0  02:26       0.000     0.000
  WS02006248              0.01     13.53      0  02:47       0.000     0.000
  WS02006249              0.66     83.95      0  02:16       0.161     0.000
  WS02006252              0.01    245.63      0  00:00       0.000     0.000
  WS02006256              1.01    293.19      0  00:00       0.336     0.000
  YS02001580              0.01     99.49      0  01:50       0.000     0.000
  YS02001586              0.67    883.80      0  02:03       0.880     0.000
  YS02001590              0.01     28.13      0  01:48       0.000     0.000
  YS02001600              0.01      2.02      0  01:50       0.000     0.000
  YS02001601              0.85   2078.19      0  02:02       2.320     0.000
  YS02001602              0.75     61.99      0  02:00       0.153     0.000
  YS02001605              0.01      1.41      0  01:49       0.000     0.000
  YS02001610              0.66    953.35      0  02:08       1.255     0.000
  YS02001616              0.05      1.49      0  02:08       0.000     0.000
  YS02001619              0.17    491.19      0  02:03       0.173     0.000
  YS02001622              0.01     92.59      0  01:49       0.000     0.000
  YS02001625              0.63   1504.99      0  02:08       1.893     0.000
  YS02001629              0.24    455.36      0  02:02       0.213     0.000
  YS02001633              0.01      1.54      0  02:00       0.000     0.000
  YS02001644              0.32   2635.15      0  02:02       1.429     0.000
  YS02001649              0.01     13.03      0  01:56       0.000     0.000
  YS02001652              0.01     14.39      0  01:55       0.000     0.000
  YS02001655              0.01    137.01      0  01:54       0.000     0.000
  YS02001658              0.01    362.65      0  01:55       0.000     0.000
  YS02001748              0.01    305.88      0  01:56       0.000     0.000
  YS02001751              0.01     87.56      0  01:56       0.000     0.000
  YS02001762              0.01     78.77      0  01:54       0.000     0.000
  YS02001765              0.01     29.82      0  01:54       0.000     0.000
  YS02001767              0.01    106.07      0  01:54       0.000     0.000
  YS02001770              0.12    742.44      0  02:02       0.182     0.000
  YS02001774              0.01     43.40      0  01:54       0.000     0.000
  YS02001779              0.29    851.15      0  02:05       0.559     0.000
  YS02001890              0.27    856.61      0  02:01       0.355     0.000
  YS02001907              0.47   3157.04      0  02:02       2.582     0.000
  YS02001915              0.10    336.88      0  02:02       0.071     0.000
  YS02001918              0.01     71.83      0  01:54       0.001     0.000
  YS02001923              0.01    235.73      0  01:54       0.000     0.000
  YS02001926              0.01    340.41      0  01:54       0.001     0.000
  YS02001929              0.01    324.38      0  01:54       0.002     0.000
  YS02163601              0.01      1.41      0  02:32       0.000     0.000
  YS02164001              0.01      2.09      0  02:32       0.000     0.000
  
  
  **********************
  Storage Volume Summary
  **********************
  
  ------------------------------------------------------------------------------------------------
                         Average    Avg   Evap  Exfil     Maximum    Max    Time of Max    Maximum
                          Volume   Pcnt   Pcnt   Pcnt      Volume   Pcnt     Occurrence    Outflow
  Storage Unit           1000 m³   Full   Loss   Loss     1000 m³   Full    days hr:min        LPS
  ------------------------------------------------------------------------------------------------
  CC-storage               2.417   37.7    0.0    0.0       4.900   76.4       0  02:34    1783.53
  JK-storage               0.153   52.6    0.0    0.0       0.212   72.7       0  02:31    2300.00
  
  
  ***********************
  Outfall Loading Summary
  ***********************
  
  -----------------------------------------------------------
                         Flow       Avg       Max       Total
                         Freq      Flow      Flow      Volume
  Outfall Node           Pcnt       LPS       LPS    10^6 ltr
  -----------------------------------------------------------
  CC-1                  22.78    683.00    683.00       4.048
  CC-2                  19.38    683.00    683.00       3.652
  JK-1                   8.86   1000.00   1000.00       2.049
  JK-2                   5.43   1000.00   1000.00       1.393
  WSC                   99.96    271.66    554.77       6.418
  -----------------------------------------------------------
  System                31.28   3637.66   3914.62      17.560
  
  
  ********************
  Link Flow Summary
  ********************
  
  -----------------------------------------------------------------------------
                                 Maximum  Time of Max   Maximum    Max/    Max/
                                  |Flow|   Occurrence   |Veloc|    Full    Full
  Link                 Type          LPS  days hr:min     m/sec    Flow   Depth
  -----------------------------------------------------------------------------
  1                    CONDUIT    554.77     0  03:08      2.83    0.19    0.30
  WS02003060WS02003069 CONDUIT    552.78     0  03:07      1.64    0.22    0.34
  WS02003066WSF200     CONDUIT    536.32     0  03:06      2.85    0.09    0.22
  WS02003067WS02003066 CONDUIT    536.29     0  03:06      1.21    0.17    0.42
  WS02003069WS02003072 CONDUIT    552.98     0  03:06      1.37    0.27    0.39
  WS02003072WS02003073 CONDUIT    552.95     0  03:07      1.43    1.19    0.37
  WS02004401WS02004402 CONDUIT    537.65     0  03:03      0.98    0.65    0.86
  WS02004402WS02004403 CONDUIT    537.56     0  03:03      0.97    0.77    0.88
  WS02004403WS02004404 CONDUIT    537.11     0  03:04      0.92    0.39    0.93
  WS02004404WS02004405 CONDUIT    537.48     0  03:04      1.08    5.27    0.96
  WS02004405WS02004406 CONDUIT    537.82     0  03:04      0.99    1.06    0.96
  WS02004406WS02004407 CONDUIT    537.19     0  03:04      1.04    0.24    0.63
  WS02004407WS02004409 CONDUIT    536.90     0  03:04      1.46    0.19    0.48
  WS02004409WS02004410 CONDUIT    536.68     0  03:05      0.96    0.69    0.67
  WS02004410WS02004411 CONDUIT    536.52     0  03:05      0.93    0.73    0.69
  WS02004411WS02004412 CONDUIT    536.43     0  03:05      0.92    0.76    0.69
  WS02004412WS02004413 CONDUIT    536.45     0  03:06      0.82    0.36    0.78
  WS02004413WS02003067 CONDUIT    536.29     0  03:06      1.11    0.23    0.59
  WS02006109WS02006110 CONDUIT    561.26     0  02:15      1.12    1.08    1.00
  WS02006110WS02006113 CONDUIT    571.93     0  02:16      1.38    0.52    0.79
  WS02006111WS02006112 CONDUIT    543.27     0  02:52      1.81    0.26    0.67
  WS02006112WS02006115 CONDUIT    562.18     0  02:44      0.79    0.33    0.87
  WS02006113WS02006111 CONDUIT    561.73     0  02:17      2.47    0.67    0.46
  WS02006115WS02006116 CONDUIT    542.61     0  02:44      0.97    0.70    0.76
  WS02006116WS02004401 CONDUIT    538.04     0  02:45      0.98    0.74    0.84
  WS02006228WS02006109 CONDUIT    558.80     0  02:15      1.11    2.44    1.00
  WS02006229WS02006228 CONDUIT    557.68     0  02:15      1.14    1.85    1.00
  WS02006230WS02006229 CONDUIT    558.41     0  02:15      1.45   12.43    1.00
  WS02006231WS02006230 CONDUIT    590.92     0  02:37      1.60    8.96    1.00
  WS02006232WS02006231 CONDUIT    574.86     0  02:36      1.50    1.20    1.00
  WS02006234WS02006232 CONDUIT    574.05     0  02:36      1.49    1.16    1.00
  WS02006235WS02006234 CONDUIT    569.57     0  02:36      1.48    6.01    1.00
  WS02006238WS02006235 CONDUIT    425.76     0  02:40      1.45    0.95    1.00
  WS02006239WS02006238 CONDUIT    424.67     0  02:40      1.10    1.36    1.00
  WS02006240WS02006239 CONDUIT    433.16     0  02:01      1.24    1.36    1.00
  WS02006242WS02006240 CONDUIT    421.72     0  02:01      1.13    1.67    1.00
  WS02006243WS02006242 CONDUIT    421.62     0  02:01      1.40    0.90    1.00
  WS02006245WS02006243 CONDUIT    422.64     0  02:01      1.45    1.25    1.00
  WS02006247WS02006245 CONDUIT    423.22     0  02:01      1.43    3.36    1.00
  WS02006248WS02006247 CONDUIT    423.39     0  02:01      1.44    0.92    1.00
  WS02006249WS02006248 CONDUIT    424.17     0  02:01      1.36    2.32    1.00
  WS02006251WS02006249 CONDUIT    459.02     0  00:00      1.99    1.32    1.00
  WS02006252WS02006251 CONDUIT    405.40     0  03:10     25.65    1.49    1.00
  WS02006256WS02006235 CONDUIT    288.91     0  00:00      4.23    3.06    1.00
  WSF200WS02003060     CONDUIT    536.38     0  03:06      2.06    0.12    0.28
  YS02001580YS02001583 CONDUIT    122.11     0  01:50      0.64    0.47    1.00
  YS02001583YS02001586 CONDUIT    152.67     0  01:50      0.65    0.23    1.00
  YS02001586YS02001590 CONDUIT    317.90     0  02:16      1.25    0.56    1.00
  YS02001590YS02001593 CONDUIT    318.01     0  02:01      1.12    2.00    1.00
  YS02001593YS02001596 CONDUIT    317.99     0  02:30      1.75    0.50    1.00
  YS02001596YS02001600 CONDUIT    317.94     0  02:03      1.27    0.62    1.00
  YS02001600YS02001601 CONDUIT    317.85     0  02:15      1.12    0.55    1.00
  YS02001601YS02001602 CONDUIT    517.89     0  01:49      1.83    1.87    1.00
  YS02001602YS02001605 CONDUIT    518.10     0  01:49      1.83   10.96    1.00
  YS02001605YS02001607 CONDUIT    518.29     0  01:49      1.83    2.84    1.00
  YS02001607YS02001610 CONDUIT    519.22     0  01:49      0.66    0.49    1.00
  YS02001610YS02001613 CONDUIT    617.58     0  02:08      0.79    0.71    1.00
  YS02001613YS02001616 CONDUIT    617.55     0  02:09      0.79    0.53    1.00
  YS02001616YS02001619 CONDUIT    617.56     0  02:08      0.79    1.07    1.00
  YS02001619YS02001622 CONDUIT   1053.86     0  02:03      1.34    1.55    1.00
  YS02001622YS02001625 CONDUIT   1053.66     0  02:08      1.34    0.56    1.00
  YS02001625YS02001629 CONDUIT    930.98     0  01:53      1.19    0.44    1.00
  YS02001629YS02163301 CONDUIT    930.38     0  01:53      1.18    1.15    1.00
  YS02001633YS02163601 CONDUIT   1391.80     0  01:53      1.77    1.46    1.00
  YS02001641YS02001644 CONDUIT   1386.87     0  01:53      1.77    4.48    1.00
  YS02001644YS02001647 CONDUIT   1813.42     0  01:53      2.31    1.07    1.00
  YS02001647YS02001649 CONDUIT   1822.38     0  01:53      2.37    0.96    1.00
  YS02001649YS02001757 CONDUIT   2065.55     0  01:53      2.63    1.25    1.00
  YS02001652YS02001649 CONDUIT   1434.68     0  02:01      1.83    0.71    1.00
  YS02001655YS02001652 CONDUIT   1434.81     0  02:01      1.83    0.70    1.00
  YS02001658YS02001655 CONDUIT   1435.44     0  02:01      1.91    0.61    1.00
  YS02001661YS02001658 CONDUIT   1435.80     0  02:01      2.35    0.56    1.00
  YS02001664YS02001661 CONDUIT   1435.66     0  02:01      2.34    0.45    1.00
  YS02001745YS02001748 CONDUIT    920.69     0  02:01      2.21    0.35    1.00
  YS02001748YS02001751 CONDUIT    921.31     0  02:01      1.73    0.47    1.00
  YS02001751YS02001754 CONDUIT    920.87     0  02:01      1.46    0.44    1.00
  YS02001754YS02001757 CONDUIT    920.51     0  02:01      1.17    0.37    1.00
  YS02001757CaochengTiaoxuchi CONDUIT   3495.15     0  01:56      4.46    1.51    1.00
  YS02001759YS02001757 CONDUIT   1464.73     0  02:00      1.86    1.04    1.00
  YS02001762YS02001759 CONDUIT    769.25     0  01:56      0.98    0.89    1.00
  YS02001765YS02001762 CONDUIT    769.95     0  01:56      0.98    0.72    1.00
  YS02001767YS02001765 CONDUIT    770.03     0  01:56      0.98    0.97    1.00
  YS02001770YS02001767 CONDUIT    769.56     0  01:56      0.98    3.05    1.00
  YS02001774YS02001770 CONDUIT    851.34     0  02:03      1.08    0.54    1.00
  YS02001779YS02001774 CONDUIT    851.26     0  02:03      1.08    0.43    1.00
  YS02001783YS02001784 CONDUIT   1182.08     0  02:01      2.35    1.63    1.00
  YS02001784YS02001785 CONDUIT   1182.92     0  02:01      2.35    2.75    1.00
  YS02001786YS02001788 CONDUIT   1183.51     0  02:00      2.51    2.28    0.89
  YS02001788YS02001790 CONDUIT   1198.26     0  02:00      2.75    0.88    0.85
  YS02001790YS02001791 CONDUIT   1309.28     0  02:01      3.43    1.42    0.71
  YS02001791YS02001793 CONDUIT   1273.69     0  02:00      6.79    0.55    0.44
  YS02001793JiankangQianchi CONDUIT   1323.03     0  02:00      2.60    0.11    0.64
  YS02001882YS02001884 CONDUIT     42.59     0  01:51      0.14    0.05    1.00
  YS02001884YS02001887 CONDUIT     74.61     0  01:51      0.10    0.10    1.00
  YS02001887YS02001890 CONDUIT   1372.39     0  02:01      1.75    2.35    1.00
  YS02001890YS02001895 CONDUIT    518.26     0  02:08      0.66    0.24    1.00
  YS02001895YS02001898 CONDUIT    518.30     0  02:10      0.66    0.90    1.00
  YS02001898YS02001901 CONDUIT    518.95     0  02:10      0.66    0.33    1.00
  YS02001901YS02001904 CONDUIT    518.32     0  02:10      0.66    0.80    1.00
  YS02001904YS02001907 CONDUIT    519.00     0  02:10      0.66    0.18    1.00
  YS02001907YS02006553 CONDUIT    802.25     0  02:24      0.89    0.94    1.00
  YS02001910YS02001907 CONDUIT   1992.99     0  02:03      2.54    1.12    1.00
  YS02001915YS02001910 CONDUIT   1993.11     0  02:03      2.54    0.99    1.00
  YS02001918YS02001915 CONDUIT    763.31     0  02:03      0.97    0.42    1.00
  YS02001920YS02001918 CONDUIT    763.71     0  02:03      0.97    0.74    1.00
  YS02001923YS02001920 CONDUIT    760.44     0  02:03      0.97    0.34    1.00
  YS02001926YS02001923 CONDUIT    759.56     0  02:03      0.97    1.08    1.00
  YS02001929YS02001926 CONDUIT    759.20     0  02:03      1.12    0.36    1.00
  YS02006553YS02006556 CONDUIT    803.17     0  02:23      1.02    0.69    1.00
  YS02006556YS02006558 CONDUIT    803.95     0  02:24      1.02    0.63    1.00
  YS02006558YS02006561 CONDUIT   1182.43     0  02:01      4.18    2.61    1.00
  YS02006561YS02001783 CONDUIT   1181.86     0  02:00      2.35    0.61    1.00
  YS02163301YS02001633 CONDUIT    929.98     0  01:53      1.18    0.87    1.00
  YS02163601YS02164001 CONDUIT   1390.34     0  01:53      1.77    1.23    1.00
  YS02164001YS02001641 CONDUIT   1387.30     0  01:53      1.77    1.89    1.00
  CC-R1                PUMP       683.00     0  00:00              1.00
  CC-R2                PUMP       683.00     0  00:00              1.00
  CC-S1                PUMP       200.00     0  00:00              1.00
  CC-S2                PUMP       200.00     0  00:00              1.00
  JK-R1                PUMP      1000.00     0  00:00              1.00
  JK-R2                PUMP      1000.00     0  00:00              1.00
  JK-S                 PUMP       300.00     0  00:00              1.00
  
  
  ***************************
  Flow Classification Summary
  ***************************
  
  -------------------------------------------------------------------------------------
                      Adjusted    ---------- Fraction of Time in Flow Class ---------- 
                       /Actual         Up    Down  Sub   Sup   Up    Down  Norm  Inlet 
  Conduit               Length    Dry  Dry   Dry   Crit  Crit  Crit  Crit  Ltd   Ctrl  
  -------------------------------------------------------------------------------------
  1                       1.00   0.00  0.00  0.00  0.00  1.00  0.00  0.00  0.40  0.00
  WS02003060WS02003069    1.00   0.00  0.00  0.00  0.97  0.03  0.00  0.00  0.59  0.00
  WS02003066WSF200        1.00   0.13  0.00  0.00  0.00  0.87  0.00  0.00  0.78  0.00
  WS02003067WS02003066    1.00   0.10  0.02  0.00  0.88  0.00  0.00  0.00  0.00  0.00
  WS02003069WS02003072    1.00   0.00  0.00  0.00  0.99  0.01  0.00  0.00  0.68  0.00
  WS02003072WS02003073    1.00   0.00  0.00  0.00  0.00  0.00  0.00  1.00  0.00  0.00
  WS02004401WS02004402    1.00   0.02  0.00  0.00  0.98  0.00  0.00  0.00  0.00  0.00
  WS02004402WS02004403    1.00   0.02  0.00  0.00  0.97  0.00  0.00  0.00  0.00  0.00
  WS02004403WS02004404    1.00   0.00  0.03  0.00  0.97  0.00  0.00  0.00  0.00  0.00
  WS02004404WS02004405    1.00   0.00  0.00  0.00  1.00  0.00  0.00  0.00  0.01  0.00
  WS02004405WS02004406    1.00   0.00  0.00  0.00  1.00  0.00  0.00  0.00  0.00  0.00
  WS02004406WS02004407    1.00   0.00  0.05  0.00  0.95  0.00  0.00  0.00  0.00  0.00
  WS02004407WS02004409    1.00   0.05  0.00  0.00  0.94  0.01  0.00  0.00  0.95  0.00
  WS02004409WS02004410    1.00   0.05  0.00  0.00  0.95  0.00  0.00  0.00  0.03  0.00
  WS02004410WS02004411    1.00   0.05  0.00  0.00  0.95  0.00  0.00  0.00  0.01  0.00
  WS02004411WS02004412    1.00   0.05  0.00  0.00  0.95  0.00  0.00  0.00  0.00  0.00
  WS02004412WS02004413    1.00   0.05  0.00  0.00  0.94  0.00  0.00  0.00  0.01  0.00
  WS02004413WS02003067    1.00   0.06  0.04  0.00  0.00  0.00  0.90  0.00  0.00  0.00
  WS02006109WS02006110    1.00   0.00  0.01  0.00  0.98  0.00  0.01  0.00  0.00  0.00
  WS02006110WS02006113    1.00   0.01  0.01  0.00  0.98  0.00  0.00  0.00  0.00  0.00
  WS02006111WS02006112    1.00   0.02  0.00  0.00  0.98  0.00  0.00  0.00  0.98  0.00
  WS02006112WS02006115    1.00   0.02  0.00  0.00  0.97  0.00  0.00  0.00  0.00  0.00
  WS02006113WS02006111    1.00   0.02  0.00  0.00  0.00  0.98  0.00  0.00  0.16  0.00
  WS02006115WS02006116    1.00   0.02  0.00  0.00  0.97  0.00  0.00  0.01  0.00  0.00
  WS02006116WS02004401    1.00   0.02  0.00  0.00  0.98  0.00  0.00  0.00  0.00  0.00
  WS02006228WS02006109    1.00   0.00  0.00  0.00  1.00  0.00  0.00  0.00  0.00  0.00
  WS02006229WS02006228    1.00   0.00  0.00  0.00  0.99  0.00  0.00  0.01  0.00  0.00
  WS02006230WS02006229    1.00   0.00  0.00  0.00  0.99  0.00  0.00  0.01  0.02  0.00
  WS02006231WS02006230    1.00   0.00  0.00  0.00  0.34  0.00  0.66  0.00  0.00  0.00
  WS02006232WS02006231    1.00   0.00  0.00  0.00  0.99  0.00  0.01  0.00  0.00  0.00
  WS02006234WS02006232    1.00   0.00  0.00  0.00  1.00  0.00  0.00  0.00  0.14  0.00
  WS02006235WS02006234    1.00   0.00  0.00  0.00  0.81  0.00  0.19  0.00  0.00  0.00
  WS02006238WS02006235    1.00   0.00  0.00  0.00  1.00  0.00  0.00  0.00  0.00  0.00
  WS02006239WS02006238    1.00   0.00  0.00  0.00  1.00  0.00  0.00  0.00  0.26  0.00
  WS02006240WS02006239    1.00   0.00  0.00  0.00  0.68  0.00  0.00  0.32  0.02  0.00
  WS02006242WS02006240    1.00   0.00  0.00  0.00  0.99  0.00  0.01  0.00  0.00  0.00
  WS02006243WS02006242    1.00   0.00  0.00  0.00  0.99  0.00  0.00  0.01  0.40  0.00
  WS02006245WS02006243    1.00   0.00  0.00  0.00  0.72  0.00  0.00  0.28  0.01  0.00
  WS02006247WS02006245    1.00   0.00  0.00  0.00  0.98  0.00  0.00  0.01  0.00  0.00
  WS02006248WS02006247    1.00   0.00  0.00  0.00  0.99  0.00  0.00  0.01  0.18  0.00
  WS02006249WS02006248    1.00   0.00  0.00  0.00  0.59  0.00  0.41  0.00  0.00  0.00
  WS02006251WS02006249    1.00   0.00  0.00  0.00  1.00  0.00  0.00  0.00  0.42  0.00
  WS02006252WS02006251    1.00   0.00  0.45  0.00  0.09  0.00  0.46  0.00  0.00  0.00
  WS02006256WS02006235    1.00   0.00  0.00  0.00  1.00  0.00  0.00  0.00  0.00  0.00
  WSF200WS02003060        1.00   0.00  0.13  0.00  0.25  0.63  0.00  0.00  0.35  0.00
  YS02001580YS02001583    1.00   0.23  0.56  0.00  0.22  0.00  0.00  0.00  0.65  0.00
  YS02001583YS02001586    1.00   0.41  0.31  0.00  0.27  0.00  0.00  0.00  0.65  0.00
  YS02001586YS02001590    1.00   0.13  0.00  0.00  0.45  0.04  0.00  0.39  0.35  0.00
  YS02001590YS02001593    1.00   0.13  0.01  0.00  0.14  0.00  0.72  0.00  0.00  0.00
  YS02001593YS02001596    1.00   0.13  0.00  0.00  0.16  0.01  0.00  0.70  0.02  0.00
  YS02001596YS02001600    1.00   0.13  0.00  0.00  0.21  0.01  0.00  0.64  0.04  0.00
  YS02001600YS02001601    1.00   0.13  0.01  0.00  0.86  0.00  0.00  0.00  0.59  0.00
  YS02001601YS02001602    1.00   0.13  0.01  0.00  0.87  0.00  0.00  0.00  0.00  0.00
  YS02001602YS02001605    1.00   0.13  0.00  0.00  0.87  0.00  0.00  0.00  0.00  0.00
  YS02001605YS02001607    1.00   0.14  0.00  0.00  0.86  0.00  0.00  0.00  0.00  0.00
  YS02001607YS02001610    1.00   0.13  0.01  0.00  0.86  0.00  0.00  0.00  0.01  0.00
  YS02001610YS02001613    1.00   0.13  0.00  0.00  0.87  0.00  0.00  0.00  0.00  0.00
  YS02001613YS02001616    1.00   0.13  0.00  0.00  0.87  0.00  0.00  0.00  0.00  0.00
  YS02001616YS02001619    1.00   0.13  0.00  0.00  0.87  0.00  0.00  0.00  0.00  0.00
  YS02001619YS02001622    1.00   0.13  0.00  0.00  0.87  0.00  0.00  0.00  0.28  0.00
  YS02001622YS02001625    1.00   0.13  0.00  0.00  0.87  0.00  0.00  0.00  0.04  0.00
  YS02001625YS02001629    1.00   0.13  0.04  0.00  0.18  0.00  0.64  0.00  0.00  0.00
  YS02001629YS02163301    1.00   0.15  0.01  0.00  0.84  0.00  0.00  0.00  0.00  0.00
  YS02001633YS02163601    1.00   0.00  0.01  0.00  0.99  0.00  0.00  0.00  0.15  0.00
  YS02001641YS02001644    1.00   0.00  0.01  0.00  0.99  0.00  0.00  0.00  0.00  0.00
  YS02001644YS02001647    1.00   0.00  0.17  0.00  0.83  0.00  0.00  0.00  0.00  0.00
  YS02001647YS02001649    1.00   0.00  0.17  0.00  0.61  0.22  0.00  0.00  0.54  0.00
  YS02001649YS02001757    1.00   0.00  0.00  0.00  0.88  0.12  0.00  0.00  0.41  0.00
  YS02001652YS02001649    1.00   0.00  0.00  0.00  0.97  0.03  0.00  0.00  0.71  0.00
  YS02001655YS02001652    1.00   0.00  0.00  0.00  0.21  0.02  0.00  0.77  0.05  0.00
  YS02001658YS02001655    1.00   0.00  0.14  0.00  0.69  0.17  0.00  0.00  0.64  0.00
  YS02001661YS02001658    1.00   0.14  0.00  0.00  0.53  0.33  0.00  0.00  0.67  0.00
  YS02001664YS02001661    1.00   0.13  0.00  0.00  0.78  0.10  0.00  0.00  0.84  0.00
  YS02001745YS02001748    1.00   0.00  0.00  0.00  0.13  0.01  0.00  0.87  0.05  0.00
  YS02001748YS02001751    1.00   0.00  0.00  0.00  0.85  0.15  0.00  0.00  0.75  0.00
  YS02001751YS02001754    1.00   0.00  0.00  0.00  0.19  0.01  0.00  0.81  0.03  0.00
  YS02001754YS02001757    1.00   0.00  0.00  0.00  1.00  0.00  0.00  0.00  0.76  0.00
  YS02001757CaochengTiaoxuchi    1.00   0.00  0.00  0.00  0.96  0.04  0.00  0.00  0.59  0.00
  YS02001759YS02001757    1.00   0.00  0.00  0.00  0.99  0.01  0.00  0.00  0.50  0.00
  YS02001762YS02001759    1.00   0.00  0.00  0.00  1.00  0.00  0.00  0.00  0.05  0.00
  YS02001765YS02001762    1.00   0.00  0.00  0.00  1.00  0.00  0.00  0.00  0.63  0.00
  YS02001767YS02001765    1.00   0.00  0.00  0.00  1.00  0.00  0.00  0.00  0.01  0.00
  YS02001770YS02001767    1.00   0.00  0.00  0.00  1.00  0.00  0.00  0.00  0.00  0.00
  YS02001774YS02001770    1.00   0.00  0.13  0.00  0.70  0.00  0.16  0.00  0.03  0.00
  YS02001779YS02001774    1.00   0.00  0.00  0.00  1.00  0.00  0.00  0.00  0.75  0.00
  YS02001783YS02001784    1.00   0.00  0.17  0.00  0.83  0.00  0.00  0.00  0.55  0.00
  YS02001784YS02001785    1.00   0.00  0.00  0.00  1.00  0.00  0.00  0.00  0.16  0.00
  YS02001786YS02001788    1.00   0.00  0.00  0.00  0.80  0.20  0.00  0.00  0.00  0.00
  YS02001788YS02001790    1.00   0.00  0.00  0.00  0.21  0.79  0.00  0.00  0.79  0.00
  YS02001790YS02001791    1.00   0.00  0.00  0.00  0.01  0.99  0.00  0.00  0.15  0.00
  YS02001791YS02001793    1.00   0.00  0.00  0.00  0.00  1.00  0.00  0.00  0.01  0.00
  YS02001793JiankangQianchi    1.00   0.00  0.00  0.00  0.95  0.05  0.00  0.00  0.97  0.00
  YS02001882YS02001884    1.00   0.15  0.01  0.00  0.84  0.00  0.00  0.00  0.00  0.00
  YS02001884YS02001887    1.00   0.06  0.05  0.00  0.89  0.00  0.00  0.00  0.00  0.00
  YS02001887YS02001890    1.00   0.00  0.00  0.00  0.97  0.00  0.03  0.00  0.00  0.00
  YS02001890YS02001895    1.00   0.00  0.16  0.00  0.84  0.00  0.00  0.00  0.00  0.00
  YS02001895YS02001898    1.00   0.16  0.00  0.00  0.82  0.00  0.02  0.00  0.00  0.00
  YS02001898YS02001901    1.00   0.16  0.00  0.00  0.84  0.00  0.00  0.00  0.01  0.00
  YS02001901YS02001904    1.00   0.16  0.00  0.00  0.84  0.00  0.00  0.00  0.00  0.00
  YS02001904YS02001907    1.00   0.00  0.16  0.00  0.84  0.00  0.00  0.00  0.00  0.00
  YS02001907YS02006553    1.00   0.00  0.02  0.00  0.98  0.00  0.00  0.00  0.00  0.00
  YS02001910YS02001907    1.00   0.00  0.00  0.00  0.97  0.00  0.00  0.03  0.12  0.00
  YS02001915YS02001910    1.00   0.00  0.00  0.00  0.97  0.03  0.00  0.00  0.15  0.00
  YS02001918YS02001915    1.00   0.00  0.01  0.00  0.98  0.02  0.00  0.00  0.73  0.00
  YS02001920YS02001918    1.00   0.00  0.01  0.00  0.99  0.00  0.00  0.00  0.00  0.00
  YS02001923YS02001920    1.00   0.00  0.00  0.00  1.00  0.00  0.00  0.00  0.91  0.00
  YS02001926YS02001923    1.00   0.00  0.07  0.00  0.08  0.00  0.85  0.00  0.00  0.00
  YS02001929YS02001926    1.00   0.00  0.13  0.00  0.87  0.00  0.00  0.00  0.80  0.00
  YS02006553YS02006556    1.00   0.01  0.00  0.00  0.99  0.00  0.00  0.00  0.03  0.00
  YS02006556YS02006558    1.00   0.00  0.00  0.00  1.00  0.00  0.00  0.00  0.00  0.00
  YS02006558YS02006561    1.00   0.17  0.00  0.00  0.07  0.75  0.00  0.00  0.17  0.00
  YS02006561YS02001783    1.00   0.17  0.00  0.00  0.11  0.72  0.00  0.00  0.67  0.00
  YS02163301YS02001633    1.00   0.00  0.15  0.00  0.85  0.00  0.00  0.00  0.00  0.00
  YS02163601YS02164001    1.00   0.00  0.08  0.00  0.92  0.00  0.00  0.00  0.00  0.00
  YS02164001YS02001641    1.00   0.01  0.07  0.00  0.92  0.00  0.00  0.00  0.05  0.00
  
  
  *************************
  Conduit Surcharge Summary
  *************************
  
  ----------------------------------------------------------------------------
                                                           Hours        Hours 
                         --------- Hours Full --------   Above Full   Capacity
  Conduit                Both Ends  Upstream  Dnstream   Normal Flow   Limited
  ----------------------------------------------------------------------------
  WS02003072WS02003073        0.01      0.01      0.01      0.99         0.01
  WS02004404WS02004405        0.01      0.01      0.01      4.40         0.01
  WS02004405WS02004406        0.01      0.01      0.01      0.52         0.01
  WS02006109WS02006110        0.54      0.54      2.38      0.63         0.01
  WS02006110WS02006113        0.01      0.01      2.28      0.01         0.01
  WS02006111WS02006112        0.01      0.01      3.08      0.01         0.01
  WS02006112WS02006115        0.01      0.01      0.58      0.01         0.01
  WS02006228WS02006109        2.19      2.39      2.19      3.59         2.18
  WS02006229WS02006228        2.17      2.22      2.17      2.91         2.16
  WS02006230WS02006229        2.58      2.82      2.58      4.83         2.58
  WS02006231WS02006230        0.56      0.56      0.68      4.60         0.01
  WS02006232WS02006231        0.64      0.64      2.40      0.70         0.01
  WS02006234WS02006232        2.09      2.09      2.40      0.68         0.68
  WS02006235WS02006234        0.93      0.94      2.18      4.52         0.01
  WS02006238WS02006235        2.22      2.22      2.40      0.01         0.01
  WS02006239WS02006238        2.27      2.36      2.28      2.62         2.15
  WS02006240WS02006239        2.21      2.26      2.21      2.59         2.05
  WS02006242WS02006240        2.24      2.24      2.51      2.89         0.01
  WS02006243WS02006242        2.29      2.29      2.43      0.01         0.03
  WS02006245WS02006243        2.26      2.28      2.27      2.00         1.69
  WS02006247WS02006245        2.26      2.32      2.26      4.33         2.25
  WS02006248WS02006247        2.26      2.26      2.30      0.01         0.04
  WS02006249WS02006248        2.23      2.23      2.27      4.30         0.01
  WS02006251WS02006249        2.26      2.28      2.27      2.67         2.20
  WS02006252WS02006251        2.73      2.73      2.73      2.74         0.01
  WS02006256WS02006235        4.52      4.55      5.89      1.02         0.01
  YS02001580YS02001583        0.81      0.81      0.86      0.01         0.01
  YS02001583YS02001586        0.82      0.82      0.94      0.01         0.01
  YS02001586YS02001590        0.94      0.94      1.01      0.01         0.01
  YS02001590YS02001593        1.01      1.01      1.03      1.07         0.01
  YS02001593YS02001596        1.03      1.03      1.13      0.01         0.01
  YS02001596YS02001600        1.19      1.19      1.30      0.01         0.01
  YS02001600YS02001601        1.35      1.35      1.58      0.01         0.01
  YS02001601YS02001602        1.49      1.49      1.61      1.29         0.01
  YS02001602YS02001605        1.45      1.45      1.49      2.37         0.01
  YS02001605YS02001607        1.41      1.45      1.41      1.54         1.41
  YS02001607YS02001610        1.01      1.01      1.03      0.01         0.01
  YS02001610YS02001613        1.00      1.00      1.03      0.01         0.01
  YS02001613YS02001616        0.96      0.96      1.00      0.01         0.01
  YS02001616YS02001619        0.94      0.94      0.96      0.15         0.15
  YS02001619YS02001622        0.94      0.94      0.94      1.00         0.90
  YS02001622YS02001625        0.94      0.94      1.13      0.01         0.01
  YS02001625YS02001629        0.89      0.89      1.13      0.01         0.01
  YS02001629YS02163301        1.13      1.13      1.14      0.14         0.15
  YS02001633YS02163601        1.16      1.16      1.20      0.34         0.33
  YS02001641YS02001644        1.08      1.11      1.08      1.64         1.07
  YS02001644YS02001647        0.86      0.86      1.08      0.04         0.01
  YS02001647YS02001649        0.86      0.86      1.00      0.01         0.01
  YS02001649YS02001757        0.99      1.00      1.07      0.10         0.04
  YS02001652YS02001649        0.81      0.81      1.00      0.01         0.01
  YS02001655YS02001652        0.59      0.59      0.78      0.01         0.01
  YS02001658YS02001655        0.35      0.35      0.59      0.01         0.01
  YS02001661YS02001658        0.15      0.15      0.35      0.01         0.01
  YS02001664YS02001661        0.01      0.01      0.21      0.01         0.01
  YS02001745YS02001748        0.03      0.03      0.29      0.01         0.01
  YS02001748YS02001751        0.33      0.33      0.45      0.01         0.01
  YS02001751YS02001754        0.45      0.45      0.68      0.01         0.01
  YS02001754YS02001757        0.73      0.73      1.07      0.01         0.01
  YS02001757CaochengTiaoxuchi        1.01      1.07      2.09      0.48         0.38
  YS02001759YS02001757        0.97      0.97      1.07      0.09         0.10
  YS02001762YS02001759        0.93      0.93      0.97      0.01         0.01
  YS02001765YS02001762        0.88      0.88      0.93      0.01         0.01
  YS02001767YS02001765        0.84      0.85      0.88      0.01         0.02
  YS02001770YS02001767        0.84      0.84      0.85      0.63         0.52
  YS02001774YS02001770        0.82      0.82      0.91      0.01         0.01
  YS02001779YS02001774        0.67      0.67      0.91      0.01         0.01
  YS02001783YS02001784        0.65      0.68      0.65      0.83         0.65
  YS02001784YS02001785        0.54      0.65      0.54      1.09         0.54
  YS02001786YS02001788        0.01      0.54      0.01      0.95         0.01
  YS02001790YS02001791        0.01      0.01      0.01      0.64         0.01
  YS02001793JiankangQianchi        0.01      0.01      7.45      0.01         0.01
  YS02001882YS02001884        0.62      0.62      0.63      0.01         0.01
  YS02001884YS02001887        0.65      0.65      0.67      0.01         0.01
  YS02001887YS02001890        0.68      0.68      0.69      0.22         0.01
  YS02001890YS02001895        0.61      0.61      0.71      0.01         0.01
  YS02001895YS02001898        0.60      0.60      0.61      0.01         0.01
  YS02001898YS02001901        0.61      0.61      0.65      0.01         0.01
  YS02001901YS02001904        0.64      0.64      0.65      0.01         0.01
  YS02001904YS02001907        0.64      0.64      0.92      0.01         0.01
  YS02001907YS02006553        1.10      1.10      1.17      0.01         0.01
  YS02001910YS02001907        0.71      0.71      0.90      0.13         0.13
  YS02001915YS02001910        0.62      0.62      0.71      0.01         0.01
  YS02001918YS02001915        0.53      0.53      0.62      0.01         0.01
  YS02001920YS02001918        0.53      0.53      0.54      0.01         0.01
  YS02001923YS02001920        0.48      0.48      0.54      0.01         0.01
  YS02001926YS02001923        0.24      0.24      0.26      0.07         0.01
  YS02001929YS02001926        0.14      0.14      0.26      0.01         0.01
  YS02006553YS02006556        0.80      0.80      0.92      0.01         0.01
  YS02006556YS02006558        0.86      0.86      0.94      0.01         0.01
  YS02006558YS02006561        0.56      0.79      0.56      1.04         0.56
  YS02006561YS02001783        0.49      0.49      0.68      0.01         0.01
  YS02163301YS02001633        1.14      1.14      1.18      0.01         0.01
  YS02163601YS02164001        1.11      1.11      1.20      0.08         0.01
  YS02164001YS02001641        1.11      1.11      1.11      0.80         0.74
  
  
  ***************
  Pumping Summary
  ***************
  
  ---------------------------------------------------------------------------------------------------------
                                                  Min       Avg       Max     Total     Power    % Time Off
                        Percent   Number of      Flow      Flow      Flow    Volume     Usage    Pump Curve
  Pump                 Utilized   Start-Ups       LPS       LPS       LPS  10^6 ltr     Kw-hr    Low   High
  ---------------------------------------------------------------------------------------------------------
  CC-R1                   20.57           3      0.00    683.00    683.00     4.047     75.79    0.0   19.2
  CC-R2                   18.56           4      0.00    683.00    683.00     3.651     68.91    0.0   15.8
  CC-S1                   50.48           9      0.00    200.00    200.00     2.908     17.17    0.0    0.0
  CC-S2                   38.34          12      0.00    200.00    200.00     2.208     12.97    0.0    0.0
  JK-R1                    7.11          14      0.00   1000.00   1000.00     2.048     21.90    0.0    0.0
  JK-R2                    4.83           9      0.00   1000.00   1000.00     1.392     12.67    0.0    0.0
  JK-S                    12.66          14      0.00    300.00    300.00     1.094     16.82    0.0    0.0
  

  Analysis begun on:  Wed Jan 15 10:34:20 2025
  Analysis ended on:  Wed Jan 15 10:34:21 2025
  Total elapsed time: 00:00:01