
  EPA STORM WATER MANAGEMENT MODEL - VERSION 5.2 (Build 5.2.4)
  PYSWMM TOOLKIT API - VERSION v1.0 (2023-11-27)
  ------------------------------------------------------------

  WARNING 04: minimum elevation drop used for Conduit WS02004404WS02004405
  WARNING 03: negative offset ignored for Link YS02001904YS02001907
  
  ****************
  Analysis Options
  ****************
  Flow Units ............... LPS
  Process Models:
    Rainfall/Runoff ........ YES
    RDII ................... NO
    Snowmelt ............... NO
    Groundwater ............ NO
    Flow Routing ........... YES
    Ponding Allowed ........ NO
    Water Quality .......... NO
  Infiltration Method ...... HORTON
  Flow Routing Method ...... DYNWAVE
  Surcharge Method ......... EXTRAN
  Starting Date ............ 08/28/2015 08:00:00
  Ending Date .............. 08/28/2015 16:00:00
  Antecedent Dry Days ...... 8.0
  Report Time Step ......... 00:01:00
  Wet Time Step ............ 00:01:00
  Dry Time Step ............ 00:01:00
  Routing Time Step ........ 30.00 sec
  Variable Time Step ....... YES
  Maximum Trials ........... 8
  Number of Threads ........ 4
  Head Tolerance ........... 0.001500 m
  
  
  **************************        Volume         Depth
  Runoff Quantity Continuity     hectare-m            mm
  **************************     ---------       -------
  Total Precipitation ......         2.669        80.469
  Evaporation Loss .........         0.000         0.000
  Infiltration Loss ........         0.102         3.079
  Surface Runoff ...........         2.535        76.411
  Final Storage ............         0.033         0.996
  Continuity Error (%) .....        -0.020
  
  
  **************************        Volume        Volume
  Flow Routing Continuity        hectare-m      10^6 ltr
  **************************     ---------     ---------
  Dry Weather Inflow .......         0.025         0.251
  Wet Weather Inflow .......         2.534        25.345
  Groundwater Inflow .......         0.000         0.000
  RDII Inflow ..............         0.000         0.000
  External Inflow ..........         0.083         0.834
  External Outflow .........         1.829        18.293
  Flooding Loss ............         0.864         8.637
  Evaporation Loss .........         0.000         0.000
  Exfiltration Loss ........         0.000         0.000
  Initial Stored Volume ....         0.243         2.431
  Final Stored Volume ......         0.200         1.997
  Continuity Error (%) .....        -0.229
  
  
  *************************
  Highest Continuity Errors
  *************************
  Node YS02001583 (-10.10%)
  Node YS02001884 (4.79%)
  
  
  ***************************
  Time-Step Critical Elements
  ***************************
  Link WS02006252WS02006251 (44.56%)
  Link WS02006238WS02006235 (13.78%)
  Link WS02004404WS02004405 (12.28%)
  Link YS02001791YS02001793 (8.46%)
  Link WS02006235WS02006234 (6.19%)
  
  
  ********************************
  Highest Flow Instability Indexes
  ********************************
  Link WS02006113WS02006111 (51)
  Link WS02006111WS02006112 (25)
  Link WS02006252WS02006251 (18)
  Link WS02006238WS02006235 (15)
  Link YS02001607YS02001610 (13)
  
  
  *********************************
  Most Frequent Nonconverging Nodes
  *********************************
  Node CC-1 (12.14%)
  Node CC-2 (12.14%)
  Node JK-1 (12.14%)
  Node JK-2 (12.14%)
  Node WSC (12.14%)
  
  
  *************************
  Routing Time Step Summary
  *************************
  Minimum Time Step           :     0.01 sec
  Average Time Step           :     1.88 sec
  Maximum Time Step           :     7.04 sec
  % of Time in Steady State   :     0.00
  Average Iterations per Step :     3.08
  % of Steps Not Converging   :    12.14
  Time Step Frequencies       :
     30.000 - 13.228 sec      :     0.00 %
     13.228 -  5.833 sec      :     7.49 %
      5.833 -  2.572 sec      :    15.89 %
      2.572 -  1.134 sec      :    26.15 %
      1.134 -  0.500 sec      :    50.47 %
  
  
  ***************************
  Subcatchment Runoff Summary
  ***************************
  
  ------------------------------------------------------------------------------------------------------------------------------
                            Total      Total      Total      Total     Imperv       Perv      Total       Total     Peak  Runoff
                           Precip      Runon       Evap      Infil     Runoff     Runoff     Runoff      Runoff   Runoff   Coeff
  Subcatchment                 mm         mm         mm         mm         mm         mm         mm    10^6 ltr      LPS
  ------------------------------------------------------------------------------------------------------------------------------
  sub60                     80.47       0.00       0.00       1.87      69.61       7.79      77.40        1.02   566.00   0.962
  sub61                     80.47       0.00       0.00       2.71      65.66      10.98      76.64        1.41   782.16   0.952
  sub62                     80.47       0.00       0.00       1.25      72.75       5.19      77.94        2.14  1102.98   0.969
  sub63                     80.47       0.00       0.00       4.97      56.17      18.37      74.54        1.69   865.12   0.926
  sub64                     80.47       0.00       0.00       2.52      67.19       9.56      76.75        1.84   896.88   0.954
  sub65                     80.47       0.00       0.00       2.18      68.76       8.29      77.04        2.12  1002.26   0.957
  sub66                     80.47       0.00       0.00       6.07      56.06      17.26      73.32        3.42  1307.90   0.911
  sub67                     80.47       0.00       0.00       1.20      72.79       5.24      78.03        1.45   852.11   0.970
  sub68                     80.47       0.00       0.00       2.24      68.02       9.03      77.05        2.12  1129.39   0.957
  sub69                     80.47       0.00       0.00       2.00      68.29      10.07      78.36        2.90  1339.99   0.974
  sub70                     80.47       0.00       0.00       6.56      52.95      20.80      73.75        2.13   739.79   0.917
  sub71                     80.47       0.00       0.00       1.28      72.71       5.16      77.87        2.04   972.88   0.968
  sub72                     80.47       0.00       0.00       1.13      73.43       4.50      77.93        1.07   470.84   0.968
  
  
  ******************
  Node Depth Summary
  ******************
  
  ---------------------------------------------------------------------------------
                                 Average  Maximum  Maximum  Time of Max    Reported
                                   Depth    Depth      HGL   Occurrence   Max Depth
  Node                 Type       Meters   Meters   Meters  days hr:min      Meters
  ---------------------------------------------------------------------------------
  WS02003060           JUNCTION     0.26     0.38     5.32     0  02:06        0.38
  WS02003066           JUNCTION     0.21     0.30     5.85     0  02:06        0.30
  WS02003067           JUNCTION     0.54     0.70     6.02     0  02:05        0.70
  WS02003069           JUNCTION     0.29     0.43     5.01     0  02:07        0.43
  WS02003072           JUNCTION     0.36     0.50     4.87     0  02:08        0.50
  WS02003073           JUNCTION     0.21     0.30     4.36     0  02:08        0.30
  WS02004401           JUNCTION     0.63     0.85     6.85     0  02:03        0.85
  WS02004402           JUNCTION     0.66     0.88     6.84     0  02:03        0.88
  WS02004403           JUNCTION     0.68     0.89     6.82     0  02:04        0.89
  WS02004404           JUNCTION     0.76     0.96     6.81     0  02:04        0.96
  WS02004405           JUNCTION     0.76     0.96     6.81     0  02:04        0.96
  WS02004406           JUNCTION     0.77     0.96     6.79     0  02:04        0.96
  WS02004407           JUNCTION     0.20     0.30     6.61     0  02:04        0.30
  WS02004409           JUNCTION     0.44     0.67     6.44     0  02:04        0.67
  WS02004410           JUNCTION     0.46     0.68     6.40     0  02:05        0.68
  WS02004411           JUNCTION     0.48     0.69     6.37     0  02:05        0.69
  WS02004412           JUNCTION     0.50     0.70     6.34     0  02:05        0.70
  WS02004413           JUNCTION     0.66     0.86     6.33     0  02:05        0.86
  WS02006109           JUNCTION     0.70     1.16     7.77     0  03:11        1.16
  WS02006110           JUNCTION     0.70     1.18     7.76     0  02:28        1.11
  WS02006111           JUNCTION     0.20     0.29     6.99     0  01:47        0.29
  WS02006112           JUNCTION     0.79     1.08     6.96     0  02:23        1.05
  WS02006113           JUNCTION     0.30     0.46     7.35     0  01:47        0.46
  WS02006115           JUNCTION     0.52     0.75     6.89     0  02:07        0.75
  WS02006116           JUNCTION     0.60     0.83     6.87     0  02:07        0.83
  WS02006228           JUNCTION     0.69     1.18     7.83     0  03:11        1.18
  WS02006229           JUNCTION     0.67     1.42     8.11     0  01:47        1.42
  WS02006230           JUNCTION     0.67     1.40     8.14     0  02:38        1.13
  WS02006231           JUNCTION     0.47     1.23     8.35     0  02:38        0.89
  WS02006232           JUNCTION     0.61     1.54     8.58     0  01:45        1.15
  WS02006234           JUNCTION     0.54     1.47     8.62     0  01:45        1.29
  WS02006235           JUNCTION     0.58     1.66     8.82     0  02:50        1.31
  WS02006238           JUNCTION     0.61     1.71     8.86     0  02:50        1.37
  WS02006239           JUNCTION     0.58     1.68     8.89     0  02:50        1.43
  WS02006240           JUNCTION     0.55     1.59     8.88     0  02:50        1.44
  WS02006242           JUNCTION     0.62     1.55     8.82     0  02:50        1.53
  WS02006243           JUNCTION     0.52     1.43     8.85     0  02:25        1.41
  WS02006245           JUNCTION     0.52     1.35     8.83     0  02:18        1.35
  WS02006247           JUNCTION     0.54     1.29     8.79     0  02:18        1.29
  WS02006248           JUNCTION     0.50     1.10     8.69     0  01:45        1.10
  WS02006249           JUNCTION     0.53     1.09     8.69     0  01:42        1.09
  WS02006251           JUNCTION     0.53     1.43     9.10     0  02:18        1.14
  WS02006252           JUNCTION     0.39     1.50     9.74     0  00:00        0.70
  WS02006256           JUNCTION     1.06     2.35     9.28     0  00:00        2.35
  WSF200               JUNCTION     0.19     0.29     5.52     0  02:06        0.29
  YS02001580           JUNCTION     0.11     1.05     9.59     0  01:33        0.85
  YS02001583           JUNCTION     0.15     1.14     9.64     0  01:33        0.82
  YS02001586           JUNCTION     0.22     1.13     9.30     0  01:33        1.13
  YS02001590           JUNCTION     0.31     1.40     9.26     0  01:33        1.40
  YS02001593           JUNCTION     0.25     1.37     9.24     0  01:51        1.37
  YS02001596           JUNCTION     0.34     1.70     9.12     0  01:33        1.67
  YS02001600           JUNCTION     0.39     1.87     9.00     0  01:32        1.87
  YS02001601           JUNCTION     0.58     2.06     8.90     0  01:32        2.06
  YS02001602           JUNCTION     0.49     1.87     8.77     0  01:32        1.87
  YS02001605           JUNCTION     0.46     1.78     8.68     0  01:32        1.78
  YS02001607           JUNCTION     0.46     1.68     8.53     0  01:51        1.68
  YS02001610           JUNCTION     0.50     1.68     8.48     0  01:33        1.68
  YS02001613           JUNCTION     0.46     1.69     8.54     0  01:33        1.67
  YS02001616           JUNCTION     0.39     1.61     8.52     0  01:33        1.61
  YS02001619           JUNCTION     0.37     1.61     8.54     0  01:33        1.61
  YS02001622           JUNCTION     0.36     1.62     8.52     0  01:33        1.59
  YS02001625           JUNCTION     0.63     1.78     8.38     0  01:33        1.78
  YS02001629           JUNCTION     0.48     1.85     8.40     0  01:33        1.85
  YS02001633           JUNCTION     0.56     2.08     8.53     0  01:35        2.08
  YS02001641           JUNCTION     0.55     2.05     8.49     0  01:36        2.03
  YS02001644           JUNCTION     0.55     1.92     8.35     0  01:36        1.92
  YS02001647           JUNCTION     0.34     1.84     8.45     0  01:35        1.78
  YS02001649           JUNCTION     0.39     2.05     8.44     0  01:36        2.04
  YS02001652           JUNCTION     0.28     2.16     8.76     0  01:36        1.84
  YS02001655           JUNCTION     0.22     2.20     9.05     0  01:36        1.59
  YS02001658           JUNCTION     0.16     2.30     9.44     0  01:36        1.32
  YS02001661           JUNCTION     0.17     2.46     9.86     0  01:36        1.09
  YS02001664           JUNCTION     0.06     1.85     9.77     0  01:37        0.55
  YS02001745           JUNCTION     0.08     2.35     9.87     0  01:36        0.98
  YS02001748           JUNCTION     0.15     2.27     9.35     0  01:36        1.37
  YS02001751           JUNCTION     0.20     2.20     9.08     0  01:36        1.53
  YS02001754           JUNCTION     0.26     2.20     8.81     0  01:36        1.76
  YS02001757           JUNCTION     0.41     2.21     8.47     0  01:36        2.06
  YS02001759           JUNCTION     0.35     2.20     8.57     0  01:36        2.06
  YS02001762           JUNCTION     0.34     2.15     8.55     0  01:36        2.03
  YS02001765           JUNCTION     0.32     2.10     8.55     0  01:35        1.99
  YS02001767           JUNCTION     0.32     2.03     8.52     0  01:35        1.95
  YS02001770           JUNCTION     0.33     1.95     8.44     0  01:35        1.95
  YS02001774           JUNCTION     0.40     2.05     8.47     0  01:35        2.00
  YS02001779           JUNCTION     0.24     1.68     8.37     0  01:35        1.68
  YS02001783           JUNCTION     0.24     1.64     7.78     0  01:35        1.25
  YS02001784           JUNCTION     0.26     1.35     7.41     0  01:35        1.12
  YS02001786           JUNCTION     0.22     1.08     7.11     0  01:35        0.87
  YS02001788           JUNCTION     0.15     0.62     6.60     0  01:37        0.62
  YS02001790           JUNCTION     0.18     0.73     6.37     0  01:43        0.72
  YS02001791           JUNCTION     0.11     0.44     5.91     0  01:44        0.43
  YS02001793           JUNCTION     0.06     0.29     5.12     0  01:46        0.29
  YS02001882           JUNCTION     0.32     1.83     8.55     0  01:35        1.83
  YS02001884           JUNCTION     0.41     1.93     8.55     0  01:35        1.93
  YS02001887           JUNCTION     0.49     2.00     8.54     0  01:35        2.00
  YS02001890           JUNCTION     0.52     1.81     8.32     0  01:34        1.81
  YS02001895           JUNCTION     0.28     1.75     8.50     0  01:35        1.75
  YS02001898           JUNCTION     0.29     1.77     8.51     0  01:35        1.77
  YS02001901           JUNCTION     0.41     1.87     8.48     0  01:35        1.87
  YS02001904           JUNCTION     0.39     1.85     8.48     0  01:35        1.85
  YS02001907           JUNCTION     0.72     1.96     8.25     0  01:35        1.96
  YS02001910           JUNCTION     0.51     2.10     8.61     0  01:35        2.10
  YS02001915           JUNCTION     0.32     1.99     8.71     0  01:36        1.99
  YS02001918           JUNCTION     0.18     1.81     8.88     0  01:35        1.81
  YS02001920           JUNCTION     0.26     2.14     9.15     0  01:35        2.02
  YS02001923           JUNCTION     0.14     2.03     9.29     0  01:35        1.91
  YS02001926           JUNCTION     0.17     1.90     9.35     0  01:35        1.90
  YS02001929           JUNCTION     0.10     1.78     9.47     0  01:35        1.69
  YS02006553           JUNCTION     0.72     2.19     8.47     0  01:35        2.19
  YS02006556           JUNCTION     0.69     2.39     8.70     0  01:35        2.39
  YS02006558           JUNCTION     0.73     2.50     8.77     0  01:35        2.50
  YS02006561           JUNCTION     0.16     1.50     8.16     0  01:35        0.90
  YS02163301           JUNCTION     0.51     1.95     8.47     0  01:36        1.92
  YS02163601           JUNCTION     0.60     2.08     8.48     0  01:36        2.08
  YS02164001           JUNCTION     0.54     2.07     8.53     0  01:36        2.06
  CC-1                 OUTFALL      0.00     0.00     0.00     0  00:00        0.00
  CC-2                 OUTFALL      0.00     0.00     0.00     0  00:00        0.00
  JK-1                 OUTFALL      0.00     0.00     0.00     0  00:00        0.00
  JK-2                 OUTFALL      0.00     0.00     0.00     0  00:00        0.00
  WSC                  OUTFALL      0.21     0.30     0.97     0  02:09        0.30
  CC-storage           STORAGE      0.92     1.80     7.30     0  02:21        1.80
  JK-storage           STORAGE      3.18     4.24     5.04     0  01:45        4.20
  
  
  *******************
  Node Inflow Summary
  *******************
  
  -------------------------------------------------------------------------------------------------
                                  Maximum  Maximum                  Lateral       Total        Flow
                                  Lateral    Total  Time of Max      Inflow      Inflow     Balance
                                   Inflow   Inflow   Occurrence      Volume      Volume       Error
  Node                 Type           LPS      LPS  days hr:min    10^6 ltr    10^6 ltr     Percent
  -------------------------------------------------------------------------------------------------
  WS02003060           JUNCTION     16.53   553.12     0  02:06       0.476        6.52       0.047
  WS02003066           JUNCTION      0.00   536.48     0  02:06           0        6.05       0.029
  WS02003067           JUNCTION      0.00   536.45     0  02:05           0        6.05       0.077
  WS02003069           JUNCTION      0.32   553.36     0  02:07     0.00922        6.53       0.079
  WS02003072           JUNCTION      0.00   553.24     0  02:07           0        6.52       0.128
  WS02003073           JUNCTION      1.82   555.02     0  02:08      0.0524        6.57       0.102
  WS02004401           JUNCTION      0.00   538.87     0  03:12           0        6.17       0.182
  WS02004402           JUNCTION      0.00   537.40     0  02:03           0        6.15       0.183
  WS02004403           JUNCTION      0.00   537.20     0  02:08           0        6.14       0.177
  WS02004404           JUNCTION      0.16   537.13     0  03:02     0.00467        6.14       0.146
  WS02004405           JUNCTION      0.04   537.10     0  02:04      0.0011        6.13       0.219
  WS02004406           JUNCTION      0.00   537.25     0  02:04           0        6.12       0.361
  WS02004407           JUNCTION      0.00   536.94     0  02:04           0        6.09       0.030
  WS02004409           JUNCTION      0.00   536.84     0  02:04           0        6.09       0.065
  WS02004410           JUNCTION      0.00   536.64     0  02:04           0        6.09       0.093
  WS02004411           JUNCTION      0.00   536.60     0  02:05           0        6.08       0.112
  WS02004412           JUNCTION      0.00   536.52     0  02:05           0        6.08       0.144
  WS02004413           JUNCTION      0.00   536.56     0  02:05           0        6.07       0.247
  WS02006109           JUNCTION      1.23   556.02     0  02:50      0.0354        6.22       0.181
  WS02006110           JUNCTION      0.00   557.78     0  02:38           0        6.21       0.120
  WS02006111           JUNCTION      0.00   564.00     0  01:47           0         6.2       0.014
  WS02006112           JUNCTION      0.00   543.76     0  01:47           0         6.2       0.309
  WS02006113           JUNCTION      0.00   572.92     0  02:51           0         6.2       0.040
  WS02006115           JUNCTION      0.00   555.99     0  02:40           0        6.18       0.123
  WS02006116           JUNCTION      0.00   538.98     0  03:01           0        6.17       0.069
  WS02006228           JUNCTION      0.00   555.61     0  02:50           0        6.19       0.072
  WS02006229           JUNCTION      0.00   555.79     0  02:50           0        6.19       0.076
  WS02006230           JUNCTION     10.28   594.94     0  02:21       0.296         6.2       0.054
  WS02006231           JUNCTION      0.00   583.07     0  02:50           0         5.9       0.025
  WS02006232           JUNCTION      0.00   581.45     0  02:50           0        5.91       0.154
  WS02006234           JUNCTION      0.00   575.04     0  02:50           0         5.9      -0.117
  WS02006235           JUNCTION      0.00   647.63     0  01:40           0        5.97       0.114
  WS02006238           JUNCTION      0.00   426.20     0  02:15           0        4.86      -0.136
  WS02006239           JUNCTION      0.00   425.06     0  02:15           0        4.82      -0.144
  WS02006240           JUNCTION      0.00   421.23     0  02:15           0        4.79      -0.039
  WS02006242           JUNCTION      0.00   421.17     0  02:15           0        4.77      -0.009
  WS02006243           JUNCTION      0.00   420.44     0  02:15           0        4.75      -0.105
  WS02006245           JUNCTION      0.00   420.72     0  02:15           0        4.76       0.138
  WS02006247           JUNCTION      0.00   421.61     0  02:15           0        4.76      -0.003
  WS02006248           JUNCTION      0.00   421.55     0  02:15           0        4.76       0.041
  WS02006249           JUNCTION      0.00   459.02     0  00:00           0        5.06       0.160
  WS02006251           JUNCTION      0.08   406.60     0  01:42     0.00222        5.06       0.003
  WS02006252           JUNCTION      0.00   400.00     0  00:00           0        5.06      -0.060
  WS02006256           JUNCTION      0.00   300.00     0  00:00           0        1.67      -0.592
  WSF200               JUNCTION      0.00   536.50     0  02:06           0        6.05       0.012
  YS02001580           JUNCTION      0.00   141.05     0  01:33           0     0.00451       2.462
  YS02001583           JUNCTION      0.00   233.41     0  01:33           0       0.015      -9.176
  YS02001586           JUNCTION    739.79   739.90     0  01:43        2.13        2.14       0.074
  YS02001590           JUNCTION      0.00   319.18     0  01:47           0        1.62      -0.022
  YS02001593           JUNCTION      0.00   318.23     0  01:47           0        1.62       0.003
  YS02001596           JUNCTION      0.00   318.05     0  01:51           0        1.62      -0.007
  YS02001600           JUNCTION      0.00   318.16     0  01:51           0        1.62      -0.004
  YS02001601           JUNCTION   1339.99  1657.55     0  01:41         2.9        4.52       0.007
  YS02001602           JUNCTION      0.00   567.41     0  01:33           0        2.65       0.011
  YS02001605           JUNCTION      0.00   567.09     0  01:33           0        2.47       0.009
  YS02001607           JUNCTION      0.00   566.48     0  01:33           0        2.47       0.077
  YS02001610           JUNCTION      0.00   720.93     0  01:42           0        2.78       0.074
  YS02001613           JUNCTION      0.00   566.31     0  01:33           0        2.14       0.084
  YS02001616           JUNCTION      0.00   583.65     0  01:33           0        2.14       0.006
  YS02001619           JUNCTION   1307.90  1307.90     0  01:42        3.42        5.25       0.002
  YS02001622           JUNCTION      0.00   950.97     0  01:33           0        4.93      -0.010
  YS02001625           JUNCTION      0.00  1341.00     0  01:43           0         5.2       0.172
  YS02001629           JUNCTION      0.00   948.56     0  01:33           0        3.87      -0.001
  YS02001633           JUNCTION   1002.46  1436.87     0  01:35        2.13        5.66       0.057
  YS02001641           JUNCTION      0.00  1456.10     0  01:35           0        5.34       0.051
  YS02001644           JUNCTION    896.92  1955.61     0  01:35        1.84        7.18       0.035
  YS02001647           JUNCTION      0.00  1959.99     0  01:35           0        6.66       0.001
  YS02001649           JUNCTION      0.00  2202.60     0  01:35           0        8.35      -0.002
  YS02001652           JUNCTION      0.00  1027.91     0  01:37           0         1.7      -0.086
  YS02001655           JUNCTION      0.15  1027.34     0  01:37     0.00443         1.7      -0.112
  YS02001658           JUNCTION      0.00  1026.55     0  01:37           0         1.7      -0.045
  YS02001661           JUNCTION      0.00  1022.65     0  01:37           0         1.7       0.025
  YS02001664           JUNCTION    865.12   865.12     0  01:39        1.69        1.69      -0.015
  YS02001745           JUNCTION    566.00   729.43     0  01:36        1.02        1.02       0.194
  YS02001748           JUNCTION      0.04   690.19     0  01:36      0.0013        1.02      -0.350
  YS02001751           JUNCTION      0.01   647.15     0  01:37    0.000317        1.03       0.051
  YS02001754           JUNCTION      0.26   646.65     0  01:37     0.00749        1.04      -0.146
  YS02001757           JUNCTION      0.00  3560.13     0  01:37           0        12.7       0.032
  YS02001759           JUNCTION    782.20  1542.46     0  01:36        1.41        3.31      -0.016
  YS02001762           JUNCTION      0.00   855.92     0  01:36           0        1.91      -0.000
  YS02001765           JUNCTION      0.00   856.26     0  01:36           0        1.91       0.004
  YS02001767           JUNCTION      0.54   856.82     0  01:36      0.0154        1.91      -0.004
  YS02001770           JUNCTION   1103.13  1103.13     0  01:40        2.14        2.19      -0.023
  YS02001774           JUNCTION      0.00   580.38     0  01:35           0       0.316       0.365
  YS02001779           JUNCTION      0.01   585.73     0  01:35    0.000144       0.269      -0.240
  YS02001783           JUNCTION      0.00  1165.94     0  01:36           0        4.92       0.003
  YS02001784           JUNCTION      1.06  1167.02     0  01:36      0.0305        4.95       0.009
  YS02001786           JUNCTION      0.06  1167.01     0  01:36     0.00162        4.96       0.014
  YS02001788           JUNCTION      0.07  1167.27     0  01:36     0.00204        4.96       0.006
  YS02001790           JUNCTION      0.15  1178.42     0  01:37     0.00446        4.96       0.024
  YS02001791           JUNCTION      0.00  1293.43     0  01:43           0        4.96      -0.026
  YS02001793           JUNCTION      0.00  1251.23     0  01:44           0        4.96       0.004
  YS02001882           JUNCTION      0.00    69.09     0  01:34           0      0.0131       4.266
  YS02001884           JUNCTION      0.00   123.49     0  01:33           0      0.0495       5.031
  YS02001887           JUNCTION    852.56   853.01     0  01:38        1.46         1.5       0.297
  YS02001890           JUNCTION      0.00   853.37     0  01:38           0        1.46       0.340
  YS02001895           JUNCTION      0.00   537.56     0  01:34           0        1.32       0.125
  YS02001898           JUNCTION      0.00   543.12     0  01:34           0        1.32      -0.021
  YS02001901           JUNCTION      0.00   552.11     0  01:34           0        1.32       0.256
  YS02001904           JUNCTION      0.00   555.49     0  01:34           0        1.33       0.202
  YS02001907           JUNCTION      0.00  1971.01     0  01:41           0        4.51       0.374
  YS02001910           JUNCTION      0.00  1454.24     0  01:40           0        3.19       0.230
  YS02001915           JUNCTION    972.89  1454.31     0  01:41        2.04        3.24       0.038
  YS02001918           JUNCTION      0.00   587.20     0  01:35           0        1.24       0.005
  YS02001920           JUNCTION      2.87   630.89     0  01:35      0.0827        1.21       0.031
  YS02001923           JUNCTION      0.04   718.73     0  01:35     0.00109        1.11      -0.055
  YS02001926           JUNCTION      0.05  1048.59     0  01:35      0.0015        1.09      -0.037
  YS02001929           JUNCTION    470.84   865.94     0  01:35        1.07        1.08      -0.040
  YS02006553           JUNCTION      0.00   799.36     0  02:05           0        2.83       0.421
  YS02006556           JUNCTION      0.00   800.09     0  02:05           0        2.84       0.281
  YS02006558           JUNCTION   1130.27  1175.86     0  01:35        2.15        4.96       0.066
  YS02006561           JUNCTION      0.00  1175.04     0  01:35           0        4.92       0.001
  YS02163301           JUNCTION      0.00   917.03     0  01:34           0        3.85       0.041
  YS02163601           JUNCTION      0.11  1436.09     0  01:35     0.00317        5.33       0.089
  YS02164001           JUNCTION      0.00  1436.06     0  01:35           0        5.33       0.039
  CC-1                 OUTFALL       0.00   683.00     0  00:00           0        4.41       0.000
  CC-2                 OUTFALL       0.00   683.00     0  00:00           0        4.05       0.000
  JK-1                 OUTFALL       0.00  1000.00     0  00:00           0        2.85       0.000
  JK-2                 OUTFALL       0.00  1000.00     0  00:00           0       0.426       0.000
  WSC                  OUTFALL       0.00   554.98     0  02:09           0        6.56       0.000
  CC-storage           STORAGE       0.00  3561.13     0  01:37           0        14.9      -0.201
  JK-storage           STORAGE       0.00  1250.16     0  01:53           0        5.11       0.045
  
  
  **********************
  Node Surcharge Summary
  **********************
  
  Surcharging occurs when water rises above the top of the highest conduit.
  ---------------------------------------------------------------------
                                               Max. Height   Min. Depth
                                   Hours       Above Crown    Below Rim
  Node                 Type      Surcharged         Meters       Meters
  ---------------------------------------------------------------------
  WS02006109           JUNCTION        2.27          0.336        1.484
  WS02006110           JUNCTION        1.00          0.267        1.583
  WS02006112           JUNCTION        1.04          0.077        1.603
  WS02006228           JUNCTION        2.25          0.349        1.851
  WS02006229           JUNCTION        2.29          0.617        1.833
  WS02006230           JUNCTION        1.03          0.318        1.252
  WS02006231           JUNCTION        1.18          0.517        1.013
  WS02006232           JUNCTION        2.46          0.838        0.642
  WS02006234           JUNCTION        1.50          0.746        0.494
  WS02006235           JUNCTION        2.25          0.945        0.345
  WS02006238           JUNCTION        2.35          0.993        0.437
  WS02006239           JUNCTION        2.27          0.939        0.351
  WS02006240           JUNCTION        2.30          0.876        0.514
  WS02006242           JUNCTION        2.47          0.820        0.000
  WS02006243           JUNCTION        2.32          0.724        0.046
  WS02006245           JUNCTION        2.32          0.639        0.211
  WS02006247           JUNCTION        2.36          0.584        0.176
  WS02006248           JUNCTION        2.30          0.380        0.000
  WS02006249           JUNCTION        2.33          0.390        0.000
  WS02006251           JUNCTION        1.25          0.403        0.777
  WS02006252           JUNCTION        2.88          1.100        0.000
  WS02006256           JUNCTION        5.74          2.050        0.000
  YS02001580           JUNCTION        0.83          0.450        0.000
  YS02001583           JUNCTION        0.84          0.500        0.000
  YS02001586           JUNCTION        1.06          0.510        0.000
  YS02001590           JUNCTION        1.15          0.750        0.000
  YS02001593           JUNCTION        1.15          0.753        0.087
  YS02001596           JUNCTION        1.29          0.973        0.097
  YS02001600           JUNCTION        1.49          1.190        0.000
  YS02001601           JUNCTION        1.75          1.440        0.000
  YS02001602           JUNCTION        1.67          1.270        0.000
  YS02001605           JUNCTION        1.64          1.180        0.000
  YS02001607           JUNCTION        1.16          0.680        0.000
  YS02001610           JUNCTION        1.20          0.680        0.000
  YS02001613           JUNCTION        1.15          0.694        0.006
  YS02001616           JUNCTION        1.11          0.610        0.000
  YS02001619           JUNCTION        1.09          0.610        0.000
  YS02001622           JUNCTION        1.09          0.620        0.000
  YS02001625           JUNCTION        1.31          0.780        0.000
  YS02001629           JUNCTION        1.03          0.470        0.000
  YS02001633           JUNCTION        1.35          1.060        0.000
  YS02001641           JUNCTION        1.31          1.051        0.049
  YS02001644           JUNCTION        1.28          0.920        0.000
  YS02001647           JUNCTION        1.05          0.844        0.056
  YS02001649           JUNCTION        1.22          1.050        0.000
  YS02001652           JUNCTION        0.97          1.130        0.000
  YS02001655           JUNCTION        0.71          1.200        0.000
  YS02001658           JUNCTION        0.33          1.300        0.000
  YS02001661           JUNCTION        0.03          1.390        0.000
  YS02001664           JUNCTION        0.01          0.848        0.462
  YS02001745           JUNCTION        0.01          1.350        0.000
  YS02001748           JUNCTION        0.23          1.190        0.000
  YS02001751           JUNCTION        0.49          1.200        0.000
  YS02001754           JUNCTION        0.85          1.150        0.000
  YS02001757           JUNCTION        1.32          1.210        0.000
  YS02001759           JUNCTION        1.20          1.201        0.009
  YS02001762           JUNCTION        1.16          1.150        0.000
  YS02001765           JUNCTION        1.10          1.100        0.000
  YS02001767           JUNCTION        1.06          1.030        0.000
  YS02001770           JUNCTION        1.02          0.920        0.000
  YS02001774           JUNCTION        1.13          1.050        0.000
  YS02001779           JUNCTION        0.82          0.680        0.000
  YS02001783           JUNCTION        0.71          0.837        0.763
  YS02001784           JUNCTION        0.68          0.546        0.944
  YS02001786           JUNCTION        0.56          0.277        1.153
  YS02001882           JUNCTION        0.64          0.830        0.000
  YS02001884           JUNCTION        0.65          0.870        0.000
  YS02001887           JUNCTION        0.70          0.950        0.000
  YS02001890           JUNCTION        0.71          0.760        0.000
  YS02001895           JUNCTION        0.63          0.750        0.000
  YS02001898           JUNCTION        0.62          0.740        0.000
  YS02001901           JUNCTION        0.68          0.870        0.000
  YS02001904           JUNCTION        0.67          0.850        0.000
  YS02001907           JUNCTION        0.95          0.950        0.000
  YS02001910           JUNCTION        0.75          1.100        0.000
  YS02001915           JUNCTION        0.64          0.988        0.012
  YS02001918           JUNCTION        0.54          0.810        0.000
  YS02001920           JUNCTION        0.56          1.140        0.000
  YS02001923           JUNCTION        0.14          0.820        0.000
  YS02001926           JUNCTION        0.18          0.900        0.000
  YS02001929           JUNCTION        0.01          0.780        0.000
  YS02006553           JUNCTION        0.99          1.190        0.000
  YS02006556           JUNCTION        0.85          1.350        0.000
  YS02006558           JUNCTION        0.84          1.400        0.000
  YS02006561           JUNCTION        0.50          0.699        0.451
  YS02163301           JUNCTION        1.33          0.950        0.080
  YS02163601           JUNCTION        1.39          1.080        0.000
  YS02164001           JUNCTION        1.31          1.067        0.033
  
  
  *********************
  Node Flooding Summary
  *********************
  
  Flooding refers to all water that overflows a node, whether it ponds or not.
  --------------------------------------------------------------------------
                                                             Total   Maximum
                                 Maximum   Time of Max       Flood    Ponded
                        Hours       Rate    Occurrence      Volume     Depth
  Node                 Flooded       LPS   days hr:min    10^6 ltr    Meters
  --------------------------------------------------------------------------
  WS02006242              0.01      4.43      0  02:50       0.000     0.000
  WS02006248              0.01     16.71      0  01:45       0.000     0.000
  WS02006249              1.22     95.83      0  01:42       0.295     0.000
  WS02006252              0.01    245.63      0  00:00       0.000     0.000
  WS02006256              1.54    293.19      0  00:00       0.535     0.000
  YS02001580              0.01     76.89      0  01:33       0.000     0.000
  YS02001583              0.01    126.48      0  01:33       0.000     0.000
  YS02001586              0.67    422.43      0  01:43       0.512     0.000
  YS02001590              0.01      1.42      0  01:33       0.000     0.000
  YS02001600              0.01      5.22      0  01:33       0.000     0.000
  YS02001601              0.96   1259.73      0  01:41       1.870     0.000
  YS02001602              0.87     62.12      0  01:49       0.175     0.000
  YS02001605              0.01      3.91      0  01:33       0.000     0.000
  YS02001607              0.01      0.40      0  01:51       0.000     0.000
  YS02001610              0.75    720.62      0  01:42       0.951     0.000
  YS02001616              0.01     38.15      0  01:33       0.000     0.000
  YS02001619              0.01     76.03      0  01:33       0.000     0.000
  YS02001622              0.01    158.87      0  01:33       0.000     0.000
  YS02001625              0.72   1340.95      0  01:43       1.648     0.000
  YS02001629              0.14    302.91      0  01:38       0.071     0.000
  YS02001633              0.01      0.03      0  01:35       0.000     0.000
  YS02001644              0.26    922.31      0  01:37       0.508     0.000
  YS02001649              0.01    155.49      0  01:36       0.001     0.000
  YS02001652              0.01    127.89      0  01:36       0.000     0.000
  YS02001655              0.01    396.52      0  01:36       0.001     0.000
  YS02001658              0.01    504.76      0  01:36       0.001     0.000
  YS02001661              0.01    294.06      0  01:36       0.000     0.000
  YS02001745              0.01    221.21      0  01:36       0.000     0.000
  YS02001748              0.01    512.17      0  01:36       0.001     0.000
  YS02001751              0.01    292.26      0  01:36       0.001     0.000
  YS02001754              0.01     71.76      0  01:36       0.000     0.000
  YS02001757              0.01      6.27      0  01:36       0.000     0.000
  YS02001762              0.01      6.42      0  01:36       0.000     0.000
  YS02001765              0.01     24.01      0  01:35       0.000     0.000
  YS02001767              0.01    125.93      0  01:35       0.000     0.000
  YS02001770              0.01    306.54      0  01:35       0.001     0.000
  YS02001774              0.01    160.91      0  01:35       0.000     0.000
  YS02001779              0.23    555.41      0  01:35       0.248     0.000
  YS02001882              0.01      6.36      0  01:35       0.000     0.000
  YS02001884              0.01      7.61      0  01:35       0.000     0.000
  YS02001887              0.01      8.00      0  01:35       0.000     0.000
  YS02001890              0.20    336.33      0  01:38       0.134     0.000
  YS02001895              0.01      5.40      0  01:35       0.000     0.000
  YS02001898              0.01      8.96      0  01:35       0.000     0.000
  YS02001901              0.01      4.97      0  01:35       0.000     0.000
  YS02001904              0.01      7.01      0  01:35       0.000     0.000
  YS02001907              0.47   1918.96      0  01:39       1.668     0.000
  YS02001910              0.01      1.31      0  01:35       0.000     0.000
  YS02001918              0.01    185.38      0  01:36       0.003     0.000
  YS02001920              0.01     43.56      0  01:35       0.000     0.000
  YS02001923              0.01    139.55      0  01:35       0.000     0.000
  YS02001926              0.01    857.16      0  01:35       0.005     0.000
  YS02001929              0.01    692.06      0  01:35       0.002     0.000
  YS02006553              0.01      3.35      0  01:35       0.000     0.000
  YS02006556              0.01      5.18      0  01:35       0.000     0.000
  YS02006558              0.01      1.63      0  01:35       0.000     0.000
  YS02163601              0.01     15.38      0  01:36       0.000     0.000
  
  
  **********************
  Storage Volume Summary
  **********************
  
  ------------------------------------------------------------------------------------------------
                         Average    Avg   Evap  Exfil     Maximum    Max    Time of Max    Maximum
                          Volume   Pcnt   Pcnt   Pcnt      Volume   Pcnt     Occurrence    Outflow
  Storage Unit           1000 m³   Full   Loss   Loss     1000 m³   Full    days hr:min        LPS
  ------------------------------------------------------------------------------------------------
  CC-storage               2.573   40.1    0.0    0.0       5.007   78.1       0  02:21    1783.53
  JK-storage               0.160   54.9    0.0    0.0       0.213   73.1       0  01:45    2300.00
  
  
  ***********************
  Outfall Loading Summary
  ***********************
  
  -----------------------------------------------------------
                         Flow       Avg       Max       Total
                         Freq      Flow      Flow      Volume
  Outfall Node           Pcnt       LPS       LPS    10^6 ltr
  -----------------------------------------------------------
  CC-1                  22.63    683.00    683.00       4.408
  CC-2                  20.75    683.00    683.00       4.046
  JK-1                  11.19   1000.00   1000.00       2.854
  JK-2                   1.39   1000.00   1000.00       0.426
  WSC                   99.96    303.69    554.98       6.559
  -----------------------------------------------------------
  System                31.18   3669.69   3911.00      18.293
  
  
  ********************
  Link Flow Summary
  ********************
  
  -----------------------------------------------------------------------------
                                 Maximum  Time of Max   Maximum    Max/    Max/
                                  |Flow|   Occurrence   |Veloc|    Full    Full
  Link                 Type          LPS  days hr:min     m/sec    Flow   Depth
  -----------------------------------------------------------------------------
  1                    CONDUIT    554.98     0  02:09      2.83    0.19    0.30
  WS02003060WS02003069 CONDUIT    553.04     0  02:07      1.64    0.22    0.34
  WS02003066WSF200     CONDUIT    536.50     0  02:06      2.85    0.09    0.22
  WS02003067WS02003066 CONDUIT    536.48     0  02:06      1.21    0.17    0.42
  WS02003069WS02003072 CONDUIT    553.24     0  02:07      1.37    0.27    0.39
  WS02003072WS02003073 CONDUIT    553.20     0  02:08      1.44    1.19    0.37
  WS02004401WS02004402 CONDUIT    537.40     0  02:03      0.98    0.65    0.86
  WS02004402WS02004403 CONDUIT    537.20     0  02:08      0.97    0.77    0.88
  WS02004403WS02004404 CONDUIT    536.96     0  03:02      0.92    0.39    0.93
  WS02004404WS02004405 CONDUIT    537.06     0  02:04      1.08    5.26    0.96
  WS02004405WS02004406 CONDUIT    537.25     0  02:04      0.99    1.06    0.96
  WS02004406WS02004407 CONDUIT    536.94     0  02:04      1.04    0.24    0.63
  WS02004407WS02004409 CONDUIT    536.84     0  02:04      1.57    0.19    0.48
  WS02004409WS02004410 CONDUIT    536.64     0  02:04      1.06    0.69    0.67
  WS02004410WS02004411 CONDUIT    536.60     0  02:05      0.98    0.73    0.69
  WS02004411WS02004412 CONDUIT    536.52     0  02:05      0.95    0.76    0.69
  WS02004412WS02004413 CONDUIT    536.56     0  02:05      0.82    0.36    0.78
  WS02004413WS02003067 CONDUIT    536.45     0  02:05      1.11    0.23    0.59
  WS02006109WS02006110 CONDUIT    557.78     0  02:38      1.11    1.07    1.00
  WS02006110WS02006113 CONDUIT    572.92     0  02:51      1.39    0.52    0.79
  WS02006111WS02006112 CONDUIT    543.76     0  01:47      1.81    0.26    0.67
  WS02006112WS02006115 CONDUIT    555.99     0  02:40      0.86    0.33    0.87
  WS02006113WS02006111 CONDUIT    564.00     0  01:47      2.47    0.68    0.46
  WS02006115WS02006116 CONDUIT    538.98     0  03:01      1.08    0.69    0.76
  WS02006116WS02004401 CONDUIT    538.87     0  03:12      0.98    0.74    0.84
  WS02006228WS02006109 CONDUIT    554.79     0  02:50      1.10    2.42    1.00
  WS02006229WS02006228 CONDUIT    555.61     0  02:50      1.14    1.84    1.00
  WS02006230WS02006229 CONDUIT    555.79     0  02:50      1.44   12.37    1.00
  WS02006231WS02006230 CONDUIT    584.66     0  02:21      1.58    8.87    1.00
  WS02006232WS02006231 CONDUIT    583.07     0  02:50      1.53    1.22    1.00
  WS02006234WS02006232 CONDUIT    581.45     0  02:50      1.51    1.18    1.00
  WS02006235WS02006234 CONDUIT    575.04     0  02:50      1.49    6.07    1.00
  WS02006238WS02006235 CONDUIT    428.20     0  02:15      1.45    0.96    1.00
  WS02006239WS02006238 CONDUIT    426.20     0  02:15      1.11    1.36    1.00
  WS02006240WS02006239 CONDUIT    425.06     0  02:15      1.24    1.34    1.00
  WS02006242WS02006240 CONDUIT    421.23     0  02:15      1.13    1.67    1.00
  WS02006243WS02006242 CONDUIT    421.17     0  02:15      1.40    0.90    1.00
  WS02006245WS02006243 CONDUIT    420.44     0  02:15      1.45    1.24    1.00
  WS02006247WS02006245 CONDUIT    420.72     0  02:15      1.43    3.34    1.00
  WS02006248WS02006247 CONDUIT    421.61     0  02:15      1.44    0.92    1.00
  WS02006249WS02006248 CONDUIT    421.55     0  02:15      1.36    2.31    1.00
  WS02006251WS02006249 CONDUIT    459.02     0  00:00      1.99    1.32    1.00
  WS02006252WS02006251 CONDUIT    406.52     0  01:42     24.61    1.49    1.00
  WS02006256WS02006235 CONDUIT    288.91     0  00:00      4.23    3.06    1.00
  WSF200WS02003060     CONDUIT    536.60     0  02:06      2.06    0.12    0.28
  YS02001580YS02001583 CONDUIT    141.05     0  01:33      0.83    0.55    1.00
  YS02001583YS02001586 CONDUIT    189.93     0  01:33      0.82    0.29    1.00
  YS02001586YS02001590 CONDUIT    319.18     0  01:47      1.27    0.56    1.00
  YS02001590YS02001593 CONDUIT    318.23     0  01:47      1.13    2.00    1.00
  YS02001593YS02001596 CONDUIT    318.05     0  01:51      1.72    0.50    1.00
  YS02001596YS02001600 CONDUIT    318.16     0  01:51      1.23    0.62    1.00
  YS02001600YS02001601 CONDUIT    319.53     0  01:51      1.13    0.55    1.00
  YS02001601YS02001602 CONDUIT    567.41     0  01:33      2.01    2.05    1.00
  YS02001602YS02001605 CONDUIT    567.09     0  01:33      2.01   12.00    1.00
  YS02001605YS02001607 CONDUIT    566.48     0  01:33      2.00    3.11    1.00
  YS02001607YS02001610 CONDUIT    548.28     0  01:33      0.70    0.52    1.00
  YS02001610YS02001613 CONDUIT    566.31     0  01:33      0.72    0.65    1.00
  YS02001613YS02001616 CONDUIT    583.65     0  01:33      0.75    0.50    1.00
  YS02001616YS02001619 CONDUIT    539.93     0  01:33      0.69    0.94    1.00
  YS02001619YS02001622 CONDUIT    950.97     0  01:33      1.26    1.40    1.00
  YS02001622YS02001625 CONDUIT    948.30     0  01:33      1.21    0.51    1.00
  YS02001625YS02001629 CONDUIT    948.56     0  01:33      1.21    0.45    1.00
  YS02001629YS02163301 CONDUIT    917.03     0  01:34      1.17    1.13    1.00
  YS02001633YS02163601 CONDUIT   1435.98     0  01:35      1.83    1.51    1.00
  YS02001641YS02001644 CONDUIT   1464.69     0  01:35      1.86    4.73    1.00
  YS02001644YS02001647 CONDUIT   1959.99     0  01:35      2.50    1.15    1.00
  YS02001647YS02001649 CONDUIT   1900.87     0  01:35      2.42    1.00    1.00
  YS02001649YS02001757 CONDUIT   2197.27     0  01:35      2.80    1.33    1.00
  YS02001652YS02001649 CONDUIT   1028.34     0  01:37      1.31    0.51    1.00
  YS02001655YS02001652 CONDUIT   1027.91     0  01:37      1.51    0.50    1.00
  YS02001658YS02001655 CONDUIT   1027.18     0  01:37      2.01    0.44    1.00
  YS02001661YS02001658 CONDUIT   1026.55     0  01:37      2.42    0.40    1.00
  YS02001664YS02001661 CONDUIT   1022.65     0  01:37      2.52    0.32    1.00
  YS02001745YS02001748 CONDUIT    689.26     0  01:36      2.38    0.27    1.00
  YS02001748YS02001751 CONDUIT    647.14     0  01:37      1.84    0.33    1.00
  YS02001751YS02001754 CONDUIT    646.39     0  01:37      1.56    0.31    1.00
  YS02001754YS02001757 CONDUIT    645.14     0  01:37      0.82    0.26    1.00
  YS02001757CaochengTiaoxuchi CONDUIT   3561.13     0  01:37      4.57    1.54    1.00
  YS02001759YS02001757 CONDUIT   1541.90     0  01:36      1.96    1.10    1.00
  YS02001762YS02001759 CONDUIT    855.68     0  01:36      1.09    0.99    1.00
  YS02001765YS02001762 CONDUIT    855.92     0  01:36      1.09    0.80    1.00
  YS02001767YS02001765 CONDUIT    856.26     0  01:36      1.09    1.08    1.00
  YS02001770YS02001767 CONDUIT    856.28     0  01:36      1.09    3.39    1.00
  YS02001774YS02001770 CONDUIT    580.38     0  01:35      0.74    0.37    1.00
  YS02001779YS02001774 CONDUIT    585.73     0  01:35      0.75    0.30    1.00
  YS02001783YS02001784 CONDUIT   1165.96     0  01:36      2.32    1.61    1.00
  YS02001784YS02001785 CONDUIT   1166.96     0  01:36      2.32    2.72    1.00
  YS02001786YS02001788 CONDUIT   1167.20     0  01:36      2.49    2.25    0.89
  YS02001788YS02001790 CONDUIT   1178.27     0  01:37      2.72    0.87    0.84
  YS02001790YS02001791 CONDUIT   1293.43     0  01:43      3.44    1.41    0.70
  YS02001791YS02001793 CONDUIT   1251.23     0  01:44      6.75    0.54    0.44
  YS02001793JiankangQianchi CONDUIT   1250.16     0  01:53      2.50    0.10    0.65
  YS02001882YS02001884 CONDUIT     69.09     0  01:34      0.18    0.08    1.00
  YS02001884YS02001887 CONDUIT    123.49     0  01:33      0.16    0.16    1.00
  YS02001887YS02001890 CONDUIT    853.37     0  01:38      1.09    1.46    1.00
  YS02001890YS02001895 CONDUIT    537.56     0  01:34      0.68    0.25    1.00
  YS02001895YS02001898 CONDUIT    543.12     0  01:34      0.69    0.94    1.00
  YS02001898YS02001901 CONDUIT    552.11     0  01:34      0.70    0.36    1.00
  YS02001901YS02001904 CONDUIT    555.49     0  01:34      0.71    0.86    1.00
  YS02001904YS02001907 CONDUIT    561.10     0  01:34      0.71    0.20    1.00
  YS02001907YS02006553 CONDUIT    799.36     0  02:05      0.89    0.94    1.00
  YS02001910YS02001907 CONDUIT   1454.33     0  01:41      1.85    0.82    1.00
  YS02001915YS02001910 CONDUIT   1454.24     0  01:40      1.85    0.72    1.00
  YS02001918YS02001915 CONDUIT    587.20     0  01:35      0.76    0.32    1.00
  YS02001920YS02001918 CONDUIT    628.02     0  01:35      0.80    0.61    1.00
  YS02001923YS02001920 CONDUIT    572.74     0  01:35      0.74    0.26    1.00
  YS02001926YS02001923 CONDUIT    816.68     0  01:35      1.27    1.17    1.00
  YS02001929YS02001926 CONDUIT    584.86     0  01:35      1.21    0.28    1.00
  YS02006553YS02006556 CONDUIT    800.09     0  02:05      1.02    0.68    1.00
  YS02006556YS02006558 CONDUIT    801.88     0  02:05      1.02    0.63    1.00
  YS02006558YS02006561 CONDUIT   1175.04     0  01:35      4.16    2.60    1.00
  YS02006561YS02001783 CONDUIT   1165.94     0  01:36      2.32    0.60    1.00
  YS02163301YS02001633 CONDUIT    917.54     0  01:34      1.17    0.86    1.00
  YS02163601YS02164001 CONDUIT   1436.06     0  01:35      1.83    1.27    1.00
  YS02164001YS02001641 CONDUIT   1456.10     0  01:35      1.85    1.99    1.00
  CC-R1                PUMP       683.00     0  00:00              1.00
  CC-R2                PUMP       683.00     0  00:00              1.00
  CC-S1                PUMP       200.00     0  00:00              1.00
  CC-S2                PUMP       200.00     0  00:00              1.00
  JK-R1                PUMP      1000.00     0  00:00              1.00
  JK-R2                PUMP      1000.00     0  00:00              1.00
  JK-S                 PUMP       300.00     0  00:00              1.00
  
  
  ***************************
  Flow Classification Summary
  ***************************
  
  -------------------------------------------------------------------------------------
                      Adjusted    ---------- Fraction of Time in Flow Class ---------- 
                       /Actual         Up    Down  Sub   Sup   Up    Down  Norm  Inlet 
  Conduit               Length    Dry  Dry   Dry   Crit  Crit  Crit  Crit  Ltd   Ctrl  
  -------------------------------------------------------------------------------------
  1                       1.00   0.00  0.00  0.00  0.00  1.00  0.00  0.00  0.51  0.00
  WS02003060WS02003069    1.00   0.00  0.00  0.00  0.99  0.01  0.00  0.00  0.60  0.00
  WS02003066WSF200        1.00   0.13  0.00  0.00  0.00  0.87  0.00  0.00  0.73  0.00
  WS02003067WS02003066    1.00   0.10  0.02  0.00  0.88  0.00  0.00  0.00  0.00  0.00
  WS02003069WS02003072    1.00   0.00  0.00  0.00  0.99  0.01  0.00  0.00  0.67  0.00
  WS02003072WS02003073    1.00   0.00  0.00  0.00  0.00  0.00  0.00  1.00  0.00  0.00
  WS02004401WS02004402    1.00   0.02  0.00  0.00  0.98  0.00  0.00  0.00  0.00  0.00
  WS02004402WS02004403    1.00   0.02  0.00  0.00  0.97  0.00  0.00  0.00  0.00  0.00
  WS02004403WS02004404    1.00   0.00  0.03  0.00  0.97  0.00  0.00  0.00  0.00  0.00
  WS02004404WS02004405    1.00   0.00  0.00  0.00  1.00  0.00  0.00  0.00  0.00  0.00
  WS02004405WS02004406    1.00   0.00  0.00  0.00  1.00  0.00  0.00  0.00  0.00  0.00
  WS02004406WS02004407    1.00   0.00  0.05  0.00  0.95  0.00  0.00  0.00  0.00  0.00
  WS02004407WS02004409    1.00   0.05  0.00  0.00  0.94  0.01  0.00  0.00  0.94  0.00
  WS02004409WS02004410    1.00   0.05  0.00  0.00  0.95  0.00  0.00  0.00  0.03  0.00
  WS02004410WS02004411    1.00   0.05  0.00  0.00  0.95  0.00  0.00  0.00  0.01  0.00
  WS02004411WS02004412    1.00   0.05  0.00  0.00  0.95  0.00  0.00  0.00  0.00  0.00
  WS02004412WS02004413    1.00   0.05  0.00  0.00  0.94  0.00  0.00  0.00  0.01  0.00
  WS02004413WS02003067    1.00   0.06  0.04  0.00  0.00  0.00  0.90  0.00  0.00  0.00
  WS02006109WS02006110    1.00   0.00  0.01  0.00  0.98  0.00  0.01  0.00  0.00  0.00
  WS02006110WS02006113    1.00   0.01  0.01  0.00  0.98  0.00  0.00  0.00  0.00  0.00
  WS02006111WS02006112    1.00   0.02  0.00  0.00  0.98  0.00  0.00  0.00  0.98  0.00
  WS02006112WS02006115    1.00   0.02  0.00  0.00  0.97  0.00  0.00  0.00  0.00  0.00
  WS02006113WS02006111    1.00   0.02  0.00  0.00  0.00  0.98  0.00  0.00  0.15  0.00
  WS02006115WS02006116    1.00   0.02  0.00  0.00  0.97  0.00  0.00  0.01  0.00  0.00
  WS02006116WS02004401    1.00   0.02  0.00  0.00  0.98  0.00  0.00  0.00  0.00  0.00
  WS02006228WS02006109    1.00   0.00  0.00  0.00  1.00  0.00  0.00  0.00  0.00  0.00
  WS02006229WS02006228    1.00   0.00  0.00  0.00  0.99  0.00  0.00  0.01  0.00  0.00
  WS02006230WS02006229    1.00   0.00  0.00  0.00  0.99  0.00  0.00  0.01  0.00  0.00
  WS02006231WS02006230    1.00   0.00  0.00  0.00  0.35  0.00  0.65  0.00  0.00  0.00
  WS02006232WS02006231    1.00   0.00  0.00  0.00  0.99  0.00  0.01  0.00  0.00  0.00
  WS02006234WS02006232    1.00   0.00  0.00  0.00  1.00  0.00  0.00  0.00  0.19  0.00
  WS02006235WS02006234    1.00   0.00  0.00  0.00  0.76  0.00  0.24  0.00  0.00  0.00
  WS02006238WS02006235    1.00   0.00  0.00  0.00  1.00  0.00  0.00  0.00  0.00  0.00
  WS02006239WS02006238    1.00   0.00  0.00  0.00  1.00  0.00  0.00  0.00  0.28  0.00
  WS02006240WS02006239    1.00   0.00  0.00  0.00  0.66  0.00  0.00  0.33  0.02  0.00
  WS02006242WS02006240    1.00   0.00  0.00  0.00  0.99  0.00  0.01  0.00  0.00  0.00
  WS02006243WS02006242    1.00   0.00  0.00  0.00  0.99  0.00  0.00  0.01  0.44  0.00
  WS02006245WS02006243    1.00   0.00  0.00  0.00  0.72  0.00  0.00  0.28  0.01  0.00
  WS02006247WS02006245    1.00   0.00  0.00  0.00  0.98  0.00  0.00  0.02  0.00  0.00
  WS02006248WS02006247    1.00   0.00  0.00  0.00  0.99  0.00  0.00  0.01  0.20  0.00
  WS02006249WS02006248    1.00   0.00  0.00  0.00  0.56  0.00  0.44  0.00  0.00  0.00
  WS02006251WS02006249    1.00   0.00  0.00  0.00  0.99  0.00  0.00  0.00  0.46  0.00
  WS02006252WS02006251    1.00   0.00  0.20  0.00  0.16  0.00  0.64  0.00  0.00  0.00
  WS02006256WS02006235    1.00   0.00  0.00  0.00  1.00  0.00  0.00  0.00  0.00  0.00
  WSF200WS02003060        1.00   0.00  0.13  0.00  0.29  0.58  0.00  0.00  0.37  0.00
  YS02001580YS02001583    1.00   0.19  0.57  0.00  0.23  0.00  0.00  0.00  0.67  0.00
  YS02001583YS02001586    1.00   0.41  0.30  0.00  0.29  0.00  0.00  0.00  0.67  0.00
  YS02001586YS02001590    1.00   0.13  0.00  0.00  0.44  0.04  0.00  0.39  0.33  0.00
  YS02001590YS02001593    1.00   0.13  0.01  0.00  0.16  0.00  0.71  0.00  0.00  0.00
  YS02001593YS02001596    1.00   0.13  0.00  0.00  0.19  0.01  0.00  0.67  0.02  0.00
  YS02001596YS02001600    1.00   0.13  0.00  0.00  0.23  0.01  0.00  0.62  0.03  0.00
  YS02001600YS02001601    1.00   0.13  0.01  0.00  0.86  0.00  0.00  0.00  0.58  0.00
  YS02001601YS02001602    1.00   0.13  0.01  0.00  0.87  0.00  0.00  0.00  0.00  0.00
  YS02001602YS02001605    1.00   0.13  0.00  0.00  0.87  0.00  0.00  0.00  0.00  0.00
  YS02001605YS02001607    1.00   0.13  0.00  0.00  0.87  0.00  0.00  0.00  0.00  0.00
  YS02001607YS02001610    1.00   0.13  0.01  0.00  0.86  0.00  0.00  0.00  0.01  0.00
  YS02001610YS02001613    1.00   0.13  0.00  0.00  0.87  0.00  0.00  0.00  0.00  0.00
  YS02001613YS02001616    1.00   0.13  0.00  0.00  0.87  0.00  0.00  0.00  0.00  0.00
  YS02001616YS02001619    1.00   0.13  0.00  0.00  0.87  0.00  0.00  0.00  0.00  0.00
  YS02001619YS02001622    1.00   0.13  0.00  0.00  0.87  0.00  0.00  0.00  0.28  0.00
  YS02001622YS02001625    1.00   0.13  0.00  0.00  0.87  0.00  0.00  0.00  0.03  0.00
  YS02001625YS02001629    1.00   0.13  0.04  0.00  0.21  0.00  0.63  0.00  0.00  0.00
  YS02001629YS02163301    1.00   0.14  0.01  0.00  0.85  0.00  0.00  0.00  0.00  0.00
  YS02001633YS02163601    1.00   0.00  0.01  0.00  0.99  0.00  0.00  0.00  0.14  0.00
  YS02001641YS02001644    1.00   0.00  0.01  0.00  0.99  0.00  0.00  0.00  0.00  0.00
  YS02001644YS02001647    1.00   0.00  0.16  0.00  0.84  0.00  0.00  0.00  0.00  0.00
  YS02001647YS02001649    1.00   0.00  0.16  0.00  0.58  0.26  0.00  0.00  0.56  0.00
  YS02001649YS02001757    1.00   0.00  0.00  0.00  0.88  0.12  0.00  0.00  0.39  0.00
  YS02001652YS02001649    1.00   0.00  0.00  0.00  0.97  0.03  0.00  0.00  0.71  0.00
  YS02001655YS02001652    1.00   0.00  0.00  0.00  0.23  0.01  0.00  0.77  0.03  0.00
  YS02001658YS02001655    1.00   0.00  0.14  0.00  0.71  0.15  0.00  0.00  0.64  0.00
  YS02001661YS02001658    1.00   0.14  0.00  0.00  0.55  0.31  0.00  0.00  0.68  0.00
  YS02001664YS02001661    1.00   0.13  0.00  0.00  0.77  0.10  0.00  0.00  0.85  0.00
  YS02001745YS02001748    1.00   0.00  0.00  0.00  0.16  0.01  0.00  0.84  0.06  0.00
  YS02001748YS02001751    1.00   0.00  0.00  0.00  0.87  0.13  0.00  0.00  0.75  0.00
  YS02001751YS02001754    1.00   0.00  0.00  0.00  0.21  0.00  0.00  0.79  0.02  0.00
  YS02001754YS02001757    1.00   0.00  0.00  0.00  1.00  0.00  0.00  0.00  0.78  0.00
  YS02001757CaochengTiaoxuchi    1.00   0.00  0.00  0.00  0.98  0.02  0.00  0.00  0.61  0.00
  YS02001759YS02001757    1.00   0.00  0.00  0.00  0.98  0.02  0.00  0.00  0.52  0.00
  YS02001762YS02001759    1.00   0.00  0.00  0.00  1.00  0.00  0.00  0.00  0.05  0.00
  YS02001765YS02001762    1.00   0.00  0.00  0.00  1.00  0.00  0.00  0.00  0.65  0.00
  YS02001767YS02001765    1.00   0.00  0.00  0.00  1.00  0.00  0.00  0.00  0.01  0.00
  YS02001770YS02001767    1.00   0.00  0.00  0.00  1.00  0.00  0.00  0.00  0.00  0.00
  YS02001774YS02001770    1.00   0.00  0.13  0.00  0.71  0.00  0.16  0.00  0.02  0.00
  YS02001779YS02001774    1.00   0.00  0.00  0.00  1.00  0.00  0.00  0.00  0.75  0.00
  YS02001783YS02001784    1.00   0.00  0.16  0.00  0.84  0.00  0.00  0.00  0.55  0.00
  YS02001784YS02001785    1.00   0.00  0.00  0.00  1.00  0.00  0.00  0.00  0.15  0.00
  YS02001786YS02001788    1.00   0.00  0.00  0.00  0.79  0.21  0.00  0.00  0.00  0.00
  YS02001788YS02001790    1.00   0.00  0.00  0.00  0.20  0.80  0.00  0.00  0.78  0.00
  YS02001790YS02001791    1.00   0.00  0.00  0.00  0.01  0.99  0.00  0.00  0.17  0.00
  YS02001791YS02001793    1.00   0.00  0.00  0.00  0.00  1.00  0.00  0.00  0.01  0.00
  YS02001793JiankangQianchi    1.00   0.00  0.00  0.00  0.97  0.03  0.00  0.00  0.95  0.00
  YS02001882YS02001884    1.00   0.14  0.01  0.00  0.85  0.00  0.00  0.00  0.00  0.00
  YS02001884YS02001887    1.00   0.06  0.05  0.00  0.89  0.00  0.00  0.00  0.00  0.00
  YS02001887YS02001890    1.00   0.00  0.00  0.00  0.97  0.00  0.03  0.00  0.00  0.00
  YS02001890YS02001895    1.00   0.00  0.15  0.00  0.85  0.00  0.00  0.00  0.00  0.00
  YS02001895YS02001898    1.00   0.15  0.00  0.00  0.83  0.00  0.01  0.00  0.00  0.00
  YS02001898YS02001901    1.00   0.15  0.00  0.00  0.85  0.00  0.00  0.00  0.00  0.00
  YS02001901YS02001904    1.00   0.15  0.00  0.00  0.85  0.00  0.00  0.00  0.00  0.00
  YS02001904YS02001907    1.00   0.00  0.15  0.00  0.85  0.00  0.00  0.00  0.00  0.00
  YS02001907YS02006553    1.00   0.00  0.02  0.00  0.98  0.00  0.00  0.00  0.00  0.00
  YS02001910YS02001907    1.00   0.00  0.00  0.00  0.97  0.00  0.00  0.03  0.12  0.00
  YS02001915YS02001910    1.00   0.00  0.00  0.00  0.97  0.03  0.00  0.00  0.13  0.00
  YS02001918YS02001915    1.00   0.00  0.01  0.00  0.98  0.02  0.00  0.00  0.71  0.00
  YS02001920YS02001918    1.00   0.00  0.01  0.00  0.99  0.00  0.00  0.00  0.00  0.00
  YS02001923YS02001920    1.00   0.00  0.00  0.00  1.00  0.00  0.00  0.00  0.90  0.00
  YS02001926YS02001923    1.00   0.00  0.07  0.00  0.08  0.00  0.85  0.00  0.00  0.00
  YS02001929YS02001926    1.00   0.00  0.13  0.00  0.87  0.00  0.00  0.00  0.80  0.00
  YS02006553YS02006556    1.00   0.01  0.00  0.00  0.99  0.00  0.00  0.00  0.03  0.00
  YS02006556YS02006558    1.00   0.00  0.00  0.00  1.00  0.00  0.00  0.00  0.00  0.00
  YS02006558YS02006561    1.00   0.16  0.00  0.00  0.08  0.76  0.00  0.00  0.18  0.00
  YS02006561YS02001783    1.00   0.16  0.00  0.00  0.11  0.72  0.00  0.00  0.66  0.00
  YS02163301YS02001633    1.00   0.00  0.14  0.00  0.86  0.00  0.00  0.00  0.00  0.00
  YS02163601YS02164001    1.00   0.00  0.08  0.00  0.92  0.00  0.00  0.00  0.00  0.00
  YS02164001YS02001641    1.00   0.01  0.07  0.00  0.92  0.00  0.00  0.00  0.05  0.00
  
  
  *************************
  Conduit Surcharge Summary
  *************************
  
  ----------------------------------------------------------------------------
                                                           Hours        Hours 
                         --------- Hours Full --------   Above Full   Capacity
  Conduit                Both Ends  Upstream  Dnstream   Normal Flow   Limited
  ----------------------------------------------------------------------------
  WS02003072WS02003073        0.01      0.01      0.01      1.54         0.01
  WS02004404WS02004405        0.01      0.01      0.01      4.20         0.01
  WS02004405WS02004406        0.01      0.01      0.01      0.95         0.01
  WS02006109WS02006110        1.00      1.00      2.45      1.15         0.01
  WS02006110WS02006113        0.01      0.01      2.34      0.01         0.01
  WS02006111WS02006112        0.01      0.01      3.16      0.01         0.01
  WS02006112WS02006115        0.01      0.01      1.04      0.01         0.01
  WS02006228WS02006109        2.27      2.44      2.27      3.65         2.27
  WS02006229WS02006228        2.25      2.29      2.25      3.01         2.24
  WS02006230WS02006229        2.61      2.90      2.61      4.65         2.61
  WS02006231WS02006230        1.03      1.03      1.23      4.42         0.01
  WS02006232WS02006231        1.17      1.17      2.46      1.25         0.01
  WS02006234WS02006232        2.19      2.20      2.46      1.23         1.22
  WS02006235WS02006234        1.49      1.50      2.25      4.33         0.02
  WS02006238WS02006235        2.29      2.29      2.48      0.01         0.01
  WS02006239WS02006238        2.34      2.41      2.35      2.75         2.13
  WS02006240WS02006239        2.27      2.32      2.27      2.73         1.98
  WS02006242WS02006240        2.30      2.30      2.57      3.05         0.01
  WS02006243WS02006242        2.34      2.34      2.47      0.01         0.05
  WS02006245WS02006243        2.32      2.34      2.32      1.67         1.35
  WS02006247WS02006245        2.32      2.38      2.32      4.10         2.31
  WS02006248WS02006247        2.32      2.32      2.36      0.01         0.05
  WS02006249WS02006248        2.30      2.30      2.33      4.09         0.01
  WS02006251WS02006249        2.33      2.35      2.33      2.81         2.25
  WS02006252WS02006251        2.88      2.88      2.88      2.88         0.01
  WS02006256WS02006235        4.32      4.37      5.71      1.54         0.01
  YS02001580YS02001583        0.83      0.83      0.91      0.01         0.01
  YS02001583YS02001586        0.84      0.84      1.06      0.01         0.01
  YS02001586YS02001590        1.06      1.06      1.15      0.01         0.01
  YS02001590YS02001593        1.15      1.15      1.17      1.22         0.01
  YS02001593YS02001596        1.16      1.16      1.29      0.01         0.01
  YS02001596YS02001600        1.35      1.35      1.49      0.01         0.01
  YS02001600YS02001601        1.56      1.56      1.75      0.01         0.01
  YS02001601YS02001602        1.67      1.67      1.77      1.48         0.01
  YS02001602YS02001605        1.64      1.64      1.67      2.41         0.01
  YS02001605YS02001607        1.61      1.64      1.61      1.72         1.61
  YS02001607YS02001610        1.16      1.16      1.20      0.01         0.01
  YS02001610YS02001613        1.15      1.15      1.20      0.01         0.01
  YS02001613YS02001616        1.11      1.11      1.15      0.01         0.01
  YS02001616YS02001619        1.09      1.09      1.11      0.01         0.03
  YS02001619YS02001622        1.09      1.09      1.09      1.09         0.99
  YS02001622YS02001625        1.09      1.09      1.31      0.01         0.01
  YS02001625YS02001629        1.03      1.03      1.31      0.01         0.01
  YS02001629YS02163301        1.32      1.32      1.33      0.02         0.13
  YS02001633YS02163601        1.35      1.35      1.39      0.30         0.29
  YS02001641YS02001644        1.28      1.31      1.28      1.79         1.26
  YS02001644YS02001647        1.05      1.05      1.28      0.04         0.01
  YS02001647YS02001649        1.05      1.05      1.22      0.01         0.01
  YS02001649YS02001757        1.22      1.22      1.32      0.05         0.04
  YS02001652YS02001649        1.00      1.00      1.22      0.01         0.01
  YS02001655YS02001652        0.71      0.71      0.97      0.01         0.01
  YS02001658YS02001655        0.33      0.33      0.71      0.01         0.01
  YS02001661YS02001658        0.03      0.03      0.33      0.01         0.01
  YS02001664YS02001661        0.01      0.01      0.10      0.01         0.01
  YS02001745YS02001748        0.01      0.01      0.23      0.01         0.01
  YS02001748YS02001751        0.28      0.28      0.49      0.01         0.01
  YS02001751YS02001754        0.49      0.49      0.85      0.01         0.01
  YS02001754YS02001757        0.92      0.92      1.32      0.01         0.01
  YS02001757CaochengTiaoxuchi        1.26      1.32      2.22      0.45         0.37
  YS02001759YS02001757        1.20      1.20      1.32      0.02         0.04
  YS02001762YS02001759        1.16      1.16      1.20      0.01         0.02
  YS02001765YS02001762        1.10      1.10      1.16      0.01         0.01
  YS02001767YS02001765        1.06      1.06      1.10      0.01         0.02
  YS02001770YS02001767        1.05      1.05      1.06      0.70         0.70
  YS02001774YS02001770        1.02      1.02      1.13      0.01         0.01
  YS02001779YS02001774        0.82      0.82      1.13      0.01         0.01
  YS02001783YS02001784        0.68      0.71      0.68      0.88         0.68
  YS02001784YS02001785        0.56      0.68      0.56      1.23         0.56
  YS02001786YS02001788        0.01      0.56      0.01      1.03         0.01
  YS02001790YS02001791        0.01      0.01      0.01      0.66         0.01
  YS02001793JiankangQianchi        0.01      0.01      7.70      0.01         0.01
  YS02001882YS02001884        0.64      0.64      0.65      0.01         0.01
  YS02001884YS02001887        0.68      0.68      0.70      0.01         0.01
  YS02001887YS02001890        0.71      0.71      0.73      0.16         0.01
  YS02001890YS02001895        0.63      0.63      0.75      0.01         0.01
  YS02001895YS02001898        0.62      0.62      0.63      0.01         0.01
  YS02001898YS02001901        0.63      0.63      0.68      0.01         0.01
  YS02001901YS02001904        0.67      0.67      0.68      0.01         0.01
  YS02001904YS02001907        0.67      0.67      0.99      0.01         0.01
  YS02001907YS02006553        1.25      1.25      1.34      0.01         0.01
  YS02001910YS02001907        0.75      0.75      0.95      0.01         0.01
  YS02001915YS02001910        0.64      0.64      0.75      0.01         0.01
  YS02001918YS02001915        0.54      0.54      0.64      0.01         0.01
  YS02001920YS02001918        0.54      0.54      0.56      0.01         0.01
  YS02001923YS02001920        0.49      0.49      0.56      0.01         0.01
  YS02001926YS02001923        0.14      0.14      0.18      0.01         0.01
  YS02001929YS02001926        0.01      0.01      0.18      0.01         0.01
  YS02006553YS02006556        0.85      0.85      0.99      0.01         0.01
  YS02006556YS02006558        0.91      0.91      1.03      0.01         0.01
  YS02006558YS02006561        0.58      0.84      0.58      1.16         0.58
  YS02006561YS02001783        0.50      0.50      0.71      0.01         0.01
  YS02163301YS02001633        1.33      1.33      1.37      0.01         0.01
  YS02163601YS02164001        1.31      1.31      1.39      0.04         0.01
  YS02164001YS02001641        1.31      1.31      1.31      0.91         0.86
  
  
  ***************
  Pumping Summary
  ***************
  
  ---------------------------------------------------------------------------------------------------------
                                                  Min       Avg       Max     Total     Power    % Time Off
                        Percent   Number of      Flow      Flow      Flow    Volume     Usage    Pump Curve
  Pump                 Utilized   Start-Ups       LPS       LPS       LPS  10^6 ltr     Kw-hr    Low   High
  ---------------------------------------------------------------------------------------------------------
  CC-R1                   22.40           4      0.00    683.00    683.00     4.407     84.11    0.0    8.5
  CC-R2                   20.56           3      0.00    683.00    683.00     4.044     77.43    0.0    9.7
  CC-S1                   49.21           8      0.00    200.00    200.00     2.834     16.37    0.0    0.0
  CC-S2                   38.59          11      0.00    200.00    200.00     2.223     12.70    0.0    0.0
  JK-R1                    9.90          15      0.00   1000.00   1000.00     2.851     31.74    0.0    0.0
  JK-R2                    1.48           4      0.00   1000.00   1000.00     0.425      4.13    0.0    0.0
  JK-S                    19.27          17      0.00    300.00    300.00     1.665     24.85    0.0    0.0
  

  Analysis begun on:  Wed Jan 15 10:34:39 2025
  Analysis ended on:  Wed Jan 15 10:34:41 2025
  Total elapsed time: 00:00:02