
  EPA STORM WATER MANAGEMENT MODEL - VERSION 5.2 (Build 5.2.4)
  PYSWMM TOOLKIT API - VERSION v1.0 (2023-11-27)
  ------------------------------------------------------------

  WARNING 04: minimum elevation drop used for Conduit WS02004404WS02004405
  WARNING 03: negative offset ignored for Link YS02001904YS02001907
  
  ****************
  Analysis Options
  ****************
  Flow Units ............... LPS
  Process Models:
    Rainfall/Runoff ........ YES
    RDII ................... NO
    Snowmelt ............... NO
    Groundwater ............ NO
    Flow Routing ........... YES
    Ponding Allowed ........ NO
    Water Quality .......... NO
  Infiltration Method ...... HORTON
  Flow Routing Method ...... DYNWAVE
  Surcharge Method ......... EXTRAN
  Starting Date ............ 08/28/2015 08:00:00
  Ending Date .............. 08/28/2015 16:00:00
  Antecedent Dry Days ...... 8.0
  Report Time Step ......... 00:01:00
  Wet Time Step ............ 00:01:00
  Dry Time Step ............ 00:01:00
  Routing Time Step ........ 30.00 sec
  Variable Time Step ....... YES
  Maximum Trials ........... 8
  Number of Threads ........ 4
  Head Tolerance ........... 0.001500 m
  
  
  **************************        Volume         Depth
  Runoff Quantity Continuity     hectare-m            mm
  **************************     ---------       -------
  Total Precipitation ......         2.939        88.593
  Evaporation Loss .........         0.000         0.000
  Infiltration Loss ........         0.104         3.127
  Surface Runoff ...........         2.802        84.487
  Final Storage ............         0.033         0.996
  Continuity Error (%) .....        -0.019
  
  
  **************************        Volume        Volume
  Flow Routing Continuity        hectare-m      10^6 ltr
  **************************     ---------     ---------
  Dry Weather Inflow .......         0.025         0.251
  Wet Weather Inflow .......         2.802        28.022
  Groundwater Inflow .......         0.000         0.000
  RDII Inflow ..............         0.000         0.000
  External Inflow ..........         0.083         0.834
  External Outflow .........         1.820        18.199
  Flooding Loss ............         1.141        11.405
  Evaporation Loss .........         0.000         0.000
  Exfiltration Loss ........         0.000         0.000
  Initial Stored Volume ....         0.243         2.431
  Final Stored Volume ......         0.198         1.984
  Continuity Error (%) .....        -0.162
  
  
  *************************
  Highest Continuity Errors
  *************************
  Node YS02001884 (5.17%)
  Node YS02001583 (-4.43%)
  
  
  ***************************
  Time-Step Critical Elements
  ***************************
  Link WS02006252WS02006251 (44.58%)
  Link WS02004404WS02004405 (14.27%)
  Link WS02006238WS02006235 (13.24%)
  Link YS02001791YS02001793 (8.51%)
  Link WS02006235WS02006234 (5.76%)
  
  
  ********************************
  Highest Flow Instability Indexes
  ********************************
  Link WS02006113WS02006111 (53)
  Link WS02006111WS02006112 (27)
  Link WS02004404WS02004405 (22)
  Link WS02006238WS02006235 (20)
  Link WS02004405WS02004406 (19)
  
  
  *********************************
  Most Frequent Nonconverging Nodes
  *********************************
  Node CC-1 (9.50%)
  Node CC-2 (9.50%)
  Node JK-1 (9.50%)
  Node JK-2 (9.50%)
  Node WSC (9.50%)
  
  
  *************************
  Routing Time Step Summary
  *************************
  Minimum Time Step           :     0.00 sec
  Average Time Step           :     1.87 sec
  Maximum Time Step           :     7.04 sec
  % of Time in Steady State   :     0.00
  Average Iterations per Step :     3.03
  % of Steps Not Converging   :     9.50
  Time Step Frequencies       :
     30.000 - 13.228 sec      :     0.00 %
     13.228 -  5.833 sec      :     7.84 %
      5.833 -  2.572 sec      :    14.62 %
      2.572 -  1.134 sec      :    26.43 %
      1.134 -  0.500 sec      :    51.11 %
  
  
  ***************************
  Subcatchment Runoff Summary
  ***************************
  
  ------------------------------------------------------------------------------------------------------------------------------
                            Total      Total      Total      Total     Imperv       Perv      Total       Total     Peak  Runoff
                           Precip      Runon       Evap      Infil     Runoff     Runoff     Runoff      Runoff   Runoff   Coeff
  Subcatchment                 mm         mm         mm         mm         mm         mm         mm    10^6 ltr      LPS
  ------------------------------------------------------------------------------------------------------------------------------
  sub60                     88.59       0.00       0.00       1.87      76.76       8.76      85.52        1.12   704.46   0.965
  sub61                     88.59       0.00       0.00       2.72      72.40      12.35      84.75        1.56   979.13   0.957
  sub62                     88.59       0.00       0.00       1.25      80.22       5.84      86.06        2.36  1394.46   0.971
  sub63                     88.59       0.00       0.00       5.01      61.93      20.68      82.62        1.88  1123.62   0.933
  sub64                     88.59       0.00       0.00       2.53      74.10      10.76      84.86        2.04  1150.56   0.958
  sub65                     88.59       0.00       0.00       2.19      75.82       9.33      85.15        2.34  1287.14   0.961
  sub66                     88.59       0.00       0.00       6.21      61.82      19.48      81.31        3.79  1746.09   0.918
  sub67                     88.59       0.00       0.00       1.20      80.27       5.89      86.16        1.60  1052.28   0.972
  sub68                     88.59       0.00       0.00       2.25      75.01      10.15      85.16        2.34  1426.63   0.961
  sub69                     88.59       0.00       0.00       2.03      75.19      11.27      86.46        3.20  1712.13   0.976
  sub70                     88.59       0.00       0.00       6.76      58.31      23.36      81.67        2.36   984.89   0.922
  sub71                     88.59       0.00       0.00       1.28      80.18       5.81      85.99        2.25  1241.33   0.971
  sub72                     88.59       0.00       0.00       1.14      80.99       5.06      86.05        1.18   609.91   0.971
  
  
  ******************
  Node Depth Summary
  ******************
  
  ---------------------------------------------------------------------------------
                                 Average  Maximum  Maximum  Time of Max    Reported
                                   Depth    Depth      HGL   Occurrence   Max Depth
  Node                 Type       Meters   Meters   Meters  days hr:min      Meters
  ---------------------------------------------------------------------------------
  WS02003060           JUNCTION     0.26     0.38     5.32     0  02:19        0.38
  WS02003066           JUNCTION     0.21     0.30     5.85     0  02:18        0.30
  WS02003067           JUNCTION     0.54     0.70     6.02     0  02:18        0.70
  WS02003069           JUNCTION     0.29     0.43     5.02     0  02:19        0.43
  WS02003072           JUNCTION     0.35     0.50     4.87     0  02:20        0.50
  WS02003073           JUNCTION     0.20     0.30     4.36     0  02:21        0.30
  WS02004401           JUNCTION     0.64     0.88     6.88     0  02:20        0.88
  WS02004402           JUNCTION     0.67     0.91     6.87     0  02:20        0.91
  WS02004403           JUNCTION     0.69     0.92     6.85     0  02:19        0.92
  WS02004404           JUNCTION     0.77     1.07     6.92     0  02:20        1.04
  WS02004405           JUNCTION     0.75     0.97     6.82     0  02:18        0.97
  WS02004406           JUNCTION     0.76     0.96     6.79     0  02:19        0.96
  WS02004407           JUNCTION     0.20     0.30     6.61     0  02:16        0.30
  WS02004409           JUNCTION     0.44     0.67     6.44     0  02:19        0.67
  WS02004410           JUNCTION     0.46     0.68     6.40     0  02:19        0.68
  WS02004411           JUNCTION     0.48     0.69     6.37     0  02:17        0.69
  WS02004412           JUNCTION     0.50     0.70     6.34     0  02:18        0.70
  WS02004413           JUNCTION     0.66     0.86     6.33     0  02:18        0.86
  WS02006109           JUNCTION     0.70     1.14     7.76     0  02:31        1.00
  WS02006110           JUNCTION     0.70     1.22     7.81     0  02:21        0.96
  WS02006111           JUNCTION     0.20     0.29     6.99     0  02:22        0.29
  WS02006112           JUNCTION     0.80     1.09     6.98     0  02:42        1.08
  WS02006113           JUNCTION     0.30     0.46     7.35     0  03:12        0.46
  WS02006115           JUNCTION     0.53     0.78     6.92     0  02:18        0.78
  WS02006116           JUNCTION     0.61     0.86     6.90     0  02:18        0.86
  WS02006228           JUNCTION     0.69     1.26     7.92     0  02:21        1.08
  WS02006229           JUNCTION     0.67     1.68     8.37     0  02:44        1.68
  WS02006230           JUNCTION     0.67     1.55     8.30     0  02:31        1.21
  WS02006231           JUNCTION     0.47     1.31     8.43     0  01:55        0.96
  WS02006232           JUNCTION     0.61     1.65     8.69     0  02:44        1.65
  WS02006234           JUNCTION     0.54     1.73     8.89     0  01:50        1.61
  WS02006235           JUNCTION     0.58     1.81     8.98     0  02:21        1.81
  WS02006238           JUNCTION     0.61     1.87     9.02     0  02:21        1.87
  WS02006239           JUNCTION     0.58     1.77     8.98     0  02:21        1.77
  WS02006240           JUNCTION     0.54     1.60     8.90     0  02:21        1.60
  WS02006242           JUNCTION     0.62     1.55     8.82     0  02:21        1.52
  WS02006243           JUNCTION     0.52     1.48     8.90     0  02:44        1.48
  WS02006245           JUNCTION     0.52     1.38     8.86     0  01:51        1.20
  WS02006247           JUNCTION     0.54     1.31     8.81     0  01:51        1.17
  WS02006248           JUNCTION     0.50     1.10     8.69     0  01:51        1.10
  WS02006249           JUNCTION     0.53     1.09     8.69     0  01:49        1.09
  WS02006251           JUNCTION     0.52     1.38     9.05     0  01:49        1.24
  WS02006252           JUNCTION     0.38     1.50     9.74     0  00:00        1.04
  WS02006256           JUNCTION     1.03     2.35     9.28     0  00:00        2.35
  WSF200               JUNCTION     0.19     0.29     5.53     0  02:18        0.29
  YS02001580           JUNCTION     0.10     1.05     9.59     0  01:48        0.79
  YS02001583           JUNCTION     0.14     1.03     9.52     0  01:48        0.83
  YS02001586           JUNCTION     0.21     1.13     9.30     0  01:48        1.13
  YS02001590           JUNCTION     0.31     1.40     9.26     0  01:48        1.40
  YS02001593           JUNCTION     0.24     1.37     9.24     0  01:52        1.37
  YS02001596           JUNCTION     0.33     1.71     9.13     0  02:25        1.71
  YS02001600           JUNCTION     0.39     1.87     9.00     0  01:48        1.87
  YS02001601           JUNCTION     0.57     2.06     8.90     0  01:47        2.06
  YS02001602           JUNCTION     0.48     1.87     8.77     0  01:51        1.87
  YS02001605           JUNCTION     0.45     1.78     8.68     0  01:52        1.78
  YS02001607           JUNCTION     0.45     1.68     8.53     0  01:52        1.68
  YS02001610           JUNCTION     0.50     1.68     8.48     0  01:52        1.68
  YS02001613           JUNCTION     0.45     1.70     8.54     0  01:52        1.70
  YS02001616           JUNCTION     0.39     1.61     8.52     0  01:52        1.61
  YS02001619           JUNCTION     0.36     1.61     8.54     0  01:52        1.61
  YS02001622           JUNCTION     0.35     1.62     8.52     0  01:52        1.62
  YS02001625           JUNCTION     0.62     1.78     8.38     0  01:52        1.78
  YS02001629           JUNCTION     0.47     1.85     8.40     0  01:52        1.85
  YS02001633           JUNCTION     0.55     2.08     8.53     0  01:52        2.08
  YS02001641           JUNCTION     0.54     2.10     8.54     0  02:05        1.94
  YS02001644           JUNCTION     0.54     1.92     8.35     0  01:54        1.92
  YS02001647           JUNCTION     0.33     1.86     8.47     0  02:05        1.77
  YS02001649           JUNCTION     0.38     2.05     8.44     0  01:58        2.01
  YS02001652           JUNCTION     0.28     2.05     8.65     0  01:58        1.86
  YS02001655           JUNCTION     0.22     2.01     8.86     0  01:58        1.67
  YS02001658           JUNCTION     0.16     2.03     9.17     0  01:58        1.45
  YS02001661           JUNCTION     0.17     2.08     9.49     0  01:58        1.25
  YS02001664           JUNCTION     0.06     0.74     8.66     0  02:00        0.73
  YS02001745           JUNCTION     0.08     0.93     8.45     0  02:01        0.93
  YS02001748           JUNCTION     0.15     1.35     8.42     0  02:00        1.34
  YS02001751           JUNCTION     0.19     1.55     8.43     0  02:05        1.52
  YS02001754           JUNCTION     0.25     1.81     8.42     0  02:05        1.76
  YS02001757           JUNCTION     0.41     2.18     8.44     0  02:05        2.08
  YS02001759           JUNCTION     0.35     2.19     8.55     0  02:05        2.09
  YS02001762           JUNCTION     0.34     2.15     8.55     0  02:05        2.06
  YS02001765           JUNCTION     0.32     2.10     8.55     0  02:05        2.01
  YS02001767           JUNCTION     0.31     2.03     8.52     0  02:05        1.96
  YS02001770           JUNCTION     0.32     1.95     8.44     0  01:52        1.95
  YS02001774           JUNCTION     0.39     2.05     8.47     0  01:52        2.00
  YS02001779           JUNCTION     0.23     1.68     8.37     0  01:52        1.68
  YS02001783           JUNCTION     0.24     1.27     7.41     0  01:53        1.27
  YS02001784           JUNCTION     0.25     1.15     7.21     0  01:53        1.15
  YS02001786           JUNCTION     0.21     0.90     6.93     0  01:53        0.88
  YS02001788           JUNCTION     0.15     0.63     6.60     0  01:59        0.62
  YS02001790           JUNCTION     0.18     0.73     6.37     0  02:00        0.72
  YS02001791           JUNCTION     0.11     0.45     5.92     0  02:00        0.43
  YS02001793           JUNCTION     0.06     0.30     5.13     0  01:56        0.27
  YS02001882           JUNCTION     0.31     1.83     8.55     0  02:05        1.67
  YS02001884           JUNCTION     0.40     1.93     8.55     0  02:05        1.77
  YS02001887           JUNCTION     0.48     1.94     8.48     0  02:05        1.85
  YS02001890           JUNCTION     0.51     1.81     8.32     0  01:52        1.81
  YS02001895           JUNCTION     0.28     1.58     8.32     0  02:05        1.56
  YS02001898           JUNCTION     0.29     1.59     8.32     0  02:05        1.55
  YS02001901           JUNCTION     0.41     1.70     8.31     0  02:05        1.68
  YS02001904           JUNCTION     0.38     1.66     8.29     0  02:05        1.64
  YS02001907           JUNCTION     0.71     1.96     8.25     0  01:53        1.96
  YS02001910           JUNCTION     0.51     2.09     8.60     0  02:05        1.98
  YS02001915           JUNCTION     0.32     2.00     8.72     0  02:05        1.95
  YS02001918           JUNCTION     0.18     1.81     8.88     0  01:53        1.64
  YS02001920           JUNCTION     0.26     2.09     9.10     0  01:53        1.72
  YS02001923           JUNCTION     0.14     2.00     9.26     0  01:53        1.49
  YS02001926           JUNCTION     0.17     1.90     9.35     0  01:53        1.32
  YS02001929           JUNCTION     0.10     1.78     9.47     0  01:53        1.10
  YS02006553           JUNCTION     0.71     2.00     8.29     0  02:05        1.98
  YS02006556           JUNCTION     0.69     2.10     8.41     0  02:05        2.10
  YS02006558           JUNCTION     0.73     2.50     8.77     0  02:05        2.50
  YS02006561           JUNCTION     0.15     0.95     7.61     0  01:52        0.94
  YS02163301           JUNCTION     0.50     2.03     8.55     0  01:52        2.03
  YS02163601           JUNCTION     0.60     2.08     8.48     0  01:52        2.08
  YS02164001           JUNCTION     0.53     2.10     8.56     0  02:05        1.98
  CC-1                 OUTFALL      0.00     0.00     0.00     0  00:00        0.00
  CC-2                 OUTFALL      0.00     0.00     0.00     0  00:00        0.00
  JK-1                 OUTFALL      0.00     0.00     0.00     0  00:00        0.00
  JK-2                 OUTFALL      0.00     0.00     0.00     0  00:00        0.00
  WSC                  OUTFALL      0.20     0.30     0.97     0  02:22        0.30
  CC-storage           STORAGE      0.93     1.89     7.39     0  02:35        1.89
  JK-storage           STORAGE      3.06     4.22     5.02     0  02:30        4.19
  
  
  *******************
  Node Inflow Summary
  *******************
  
  -------------------------------------------------------------------------------------------------
                                  Maximum  Maximum                  Lateral       Total        Flow
                                  Lateral    Total  Time of Max      Inflow      Inflow     Balance
                                   Inflow   Inflow   Occurrence      Volume      Volume       Error
  Node                 Type           LPS      LPS  days hr:min    10^6 ltr    10^6 ltr     Percent
  -------------------------------------------------------------------------------------------------
  WS02003060           JUNCTION     16.53   557.10     0  02:18       0.476        6.51       0.030
  WS02003066           JUNCTION      0.00   540.26     0  02:18           0        6.03       0.020
  WS02003067           JUNCTION      0.00   540.16     0  02:18           0        6.04       0.066
  WS02003069           JUNCTION      0.32   557.25     0  02:19     0.00922        6.52       0.053
  WS02003072           JUNCTION      0.00   556.99     0  02:20           0        6.51       0.097
  WS02003073           JUNCTION      1.82   558.72     0  02:21      0.0524        6.56       0.076
  WS02004401           JUNCTION      0.00   540.99     0  02:22           0        6.13       0.161
  WS02004402           JUNCTION      0.00   542.92     0  02:20           0        6.12       0.164
  WS02004403           JUNCTION      0.00   543.92     0  02:45           0        6.11       0.159
  WS02004404           JUNCTION      0.16   564.42     0  02:43     0.00467         6.1       0.092
  WS02004405           JUNCTION      0.04   607.68     0  02:15      0.0011         6.1       0.130
  WS02004406           JUNCTION      0.00   549.09     0  02:18           0        6.09       0.332
  WS02004407           JUNCTION      0.00   542.05     0  02:16           0        6.07       0.015
  WS02004409           JUNCTION      0.00   541.30     0  02:16           0        6.07       0.038
  WS02004410           JUNCTION      0.00   540.81     0  02:16           0        6.07       0.064
  WS02004411           JUNCTION      0.00   540.63     0  02:17           0        6.06       0.084
  WS02004412           JUNCTION      0.00   540.49     0  02:17           0        6.06       0.115
  WS02004413           JUNCTION      0.00   540.49     0  02:17           0        6.05       0.207
  WS02006109           JUNCTION      1.23   582.65     0  02:21      0.0354        6.17       0.161
  WS02006110           JUNCTION      0.00   585.74     0  02:21           0        6.16       0.102
  WS02006111           JUNCTION      0.00   562.22     0  03:12           0        6.16       0.013
  WS02006112           JUNCTION      0.00   544.07     0  01:58           0        6.16       0.278
  WS02006113           JUNCTION      0.00   572.01     0  02:21           0        6.16       0.024
  WS02006115           JUNCTION      0.00   561.22     0  01:57           0        6.14       0.100
  WS02006116           JUNCTION      0.00   542.54     0  03:01           0        6.13       0.067
  WS02006228           JUNCTION      0.00   575.53     0  02:21           0        6.14       0.067
  WS02006229           JUNCTION      0.00   573.52     0  02:21           0        6.15       0.066
  WS02006230           JUNCTION     10.28   588.37     0  02:20       0.296        6.15       0.045
  WS02006231           JUNCTION      0.00   572.54     0  03:20           0        5.85       0.026
  WS02006232           JUNCTION      0.00   571.69     0  03:20           0        5.86       0.122
  WS02006234           JUNCTION      0.00   566.94     0  02:30           0        5.86      -0.114
  WS02006235           JUNCTION      0.00   562.59     0  01:56           0        5.92       0.116
  WS02006238           JUNCTION      0.00   422.87     0  02:25           0        4.83      -0.129
  WS02006239           JUNCTION      0.00   421.85     0  02:55           0         4.8      -0.132
  WS02006240           JUNCTION      0.00   419.28     0  02:55           0        4.76      -0.039
  WS02006242           JUNCTION      0.00   419.53     0  01:55           0        4.74      -0.028
  WS02006243           JUNCTION      0.00   418.78     0  01:55           0        4.71      -0.176
  WS02006245           JUNCTION      0.00   418.53     0  01:55           0        4.71       0.148
  WS02006247           JUNCTION      0.00   419.57     0  02:25           0        4.71      -0.013
  WS02006248           JUNCTION      0.00   435.83     0  01:51           0        4.71       0.040
  WS02006249           JUNCTION      0.00   459.02     0  00:00           0        5.02       0.107
  WS02006251           JUNCTION      0.08   410.01     0  02:44     0.00222        5.02       0.024
  WS02006252           JUNCTION      0.00   400.00     0  00:00           0        5.02      -0.067
  WS02006256           JUNCTION      0.00   300.00     0  00:00           0        1.66      -0.397
  WSF200               JUNCTION      0.00   540.33     0  02:18           0        6.03       0.005
  YS02001580           JUNCTION      0.00    74.72     0  01:48           0      0.0043       0.370
  YS02001583           JUNCTION      0.00   133.47     0  01:48           0      0.0155      -4.240
  YS02001586           JUNCTION    984.89   984.91     0  02:04        2.36        2.37       0.044
  YS02001590           JUNCTION      0.00   318.47     0  02:13           0        1.63      -0.018
  YS02001593           JUNCTION      0.00   318.04     0  02:25           0        1.63       0.003
  YS02001596           JUNCTION      0.00   317.98     0  02:31           0        1.63      -0.004
  YS02001600           JUNCTION      0.00   318.25     0  02:25           0        1.63       0.013
  YS02001601           JUNCTION   1712.13  2029.65     0  02:03         3.2        4.83       0.022
  YS02001602           JUNCTION      0.00   503.42     0  01:47           0        2.64       0.020
  YS02001605           JUNCTION      0.00   503.62     0  01:47           0        2.47       0.023
  YS02001607           JUNCTION      0.00   503.68     0  01:47           0        2.47       0.082
  YS02001610           JUNCTION      0.00   952.00     0  02:05           0           3       0.080
  YS02001613           JUNCTION      0.00   615.72     0  02:05           0        2.31       0.066
  YS02001616           JUNCTION      0.00   615.72     0  02:05           0        2.31       0.019
  YS02001619           JUNCTION   1746.09  1746.09     0  02:03        3.79        5.57      -0.000
  YS02001622           JUNCTION      0.00  1053.71     0  02:05           0        5.02       0.001
  YS02001625           JUNCTION      0.00  1502.96     0  02:05           0        5.43       0.183
  YS02001629           JUNCTION      0.00   921.19     0  01:51           0        3.86       0.004
  YS02001633           JUNCTION   1287.34  1336.95     0  01:51        2.35        5.71       0.062
  YS02001641           JUNCTION      0.00  1335.02     0  01:51           0        5.22       0.055
  YS02001644           JUNCTION   1150.60  1899.56     0  02:02        2.04        7.27       0.041
  YS02001647           JUNCTION      0.00  1729.23     0  01:52           0        6.15       0.009
  YS02001649           JUNCTION      0.00  1925.07     0  01:51           0        8.02       0.003
  YS02001652           JUNCTION      0.00  1135.06     0  02:01           0        1.88      -0.050
  YS02001655           JUNCTION      0.15  1135.37     0  02:01     0.00443        1.88      -0.004
  YS02001658           JUNCTION      0.00  1134.36     0  02:01           0        1.88      -0.043
  YS02001661           JUNCTION      0.00  1134.11     0  02:01           0        1.88       0.005
  YS02001664           JUNCTION   1123.62  1123.62     0  02:02        1.88        1.88      -0.006
  YS02001745           JUNCTION    704.46   704.46     0  02:02        1.12        1.12       0.132
  YS02001748           JUNCTION      0.04   717.09     0  02:01      0.0013        1.12      -0.213
  YS02001751           JUNCTION      0.01   717.57     0  02:01    0.000317        1.13       0.072
  YS02001754           JUNCTION      0.26   718.88     0  02:01     0.00749        1.14      -0.124
  YS02001757           JUNCTION      0.00  3163.55     0  01:59           0        12.6       0.020
  YS02001759           JUNCTION    979.17  1358.70     0  02:01        1.56        3.41      -0.010
  YS02001762           JUNCTION      0.00   705.29     0  01:56           0        1.85      -0.004
  YS02001765           JUNCTION      0.00   706.34     0  01:56           0        1.85       0.000
  YS02001767           JUNCTION      0.54   706.51     0  01:56      0.0154        1.85      -0.003
  YS02001770           JUNCTION   1394.61  1394.61     0  02:02        2.36        2.41      -0.025
  YS02001774           JUNCTION      0.00   850.58     0  02:03           0       0.563       0.203
  YS02001779           JUNCTION      0.01   850.50     0  02:03    0.000144       0.516      -0.162
  YS02001783           JUNCTION      0.00  1168.30     0  01:59           0        4.97       0.004
  YS02001784           JUNCTION      1.06  1169.15     0  01:59      0.0305           5       0.011
  YS02001786           JUNCTION      0.06  1169.17     0  01:59     0.00162           5       0.016
  YS02001788           JUNCTION      0.07  1169.79     0  02:00     0.00204           5       0.006
  YS02001790           JUNCTION      0.15  1183.63     0  02:01     0.00446           5       0.024
  YS02001791           JUNCTION      0.00  1296.86     0  02:00           0           5      -0.033
  YS02001793           JUNCTION      0.00  1252.70     0  02:02           0           5       0.005
  YS02001882           JUNCTION      0.00    46.17     0  01:50           0      0.0134       5.611
  YS02001884           JUNCTION      0.00    52.10     0  01:49           0      0.0499       5.454
  YS02001887           JUNCTION   1052.73  1053.06     0  02:01        1.62        1.65       0.268
  YS02001890           JUNCTION      0.00  1053.44     0  02:01           0        1.61       0.317
  YS02001895           JUNCTION      0.00   521.31     0  02:05           0        1.38       0.127
  YS02001898           JUNCTION      0.00   520.13     0  02:05           0        1.37       0.022
  YS02001901           JUNCTION      0.00   517.83     0  02:08           0        1.38       0.247
  YS02001904           JUNCTION      0.00   517.95     0  02:05           0        1.38       0.215
  YS02001907           JUNCTION      0.00  2633.63     0  02:02           0        4.95       0.366
  YS02001910           JUNCTION      0.00  1852.42     0  02:02           0        3.51       0.204
  YS02001915           JUNCTION   1241.35  1852.15     0  02:02        2.25        3.55       0.046
  YS02001918           JUNCTION      0.00   615.18     0  02:03           0        1.32       0.007
  YS02001920           JUNCTION      2.87   647.21     0  02:05      0.0827         1.3       0.079
  YS02001923           JUNCTION      0.04   626.43     0  02:05     0.00109        1.21      -0.004
  YS02001926           JUNCTION      0.05   631.83     0  02:05      0.0015        1.19       0.003
  YS02001929           JUNCTION    609.91   609.91     0  02:03        1.18        1.18      -0.091
  YS02006553           JUNCTION      0.00   815.43     0  02:25           0        2.77       0.436
  YS02006556           JUNCTION      0.00   816.46     0  02:25           0        2.78       0.289
  YS02006558           JUNCTION   1427.51  1427.51     0  02:02        2.37        5.06       0.070
  YS02006561           JUNCTION      0.00  1167.89     0  01:59           0        4.97      -0.004
  YS02163301           JUNCTION      0.00   921.94     0  01:51           0        3.86       0.041
  YS02163601           JUNCTION      0.11  1336.91     0  01:51     0.00317        5.22       0.098
  YS02164001           JUNCTION      0.00  1336.46     0  01:51           0        5.22       0.042
  CC-1                 OUTFALL       0.00   683.00     0  00:00           0        4.25       0.000
  CC-2                 OUTFALL       0.00   683.00     0  00:00           0        4.09       0.000
  JK-1                 OUTFALL       0.00  1000.00     0  00:00           0        2.67       0.000
  JK-2                 OUTFALL       0.00  1000.00     0  00:00           0       0.622       0.000
  WSC                  OUTFALL       0.00   558.62     0  02:22           0        6.55       0.000
  CC-storage           STORAGE       0.00  3162.81     0  02:00           0        14.8      -0.189
  JK-storage           STORAGE       0.00  1303.72     0  02:02           0        5.15       0.146
  
  
  **********************
  Node Surcharge Summary
  **********************
  
  Surcharging occurs when water rises above the top of the highest conduit.
  ---------------------------------------------------------------------
                                               Max. Height   Min. Depth
                                   Hours       Above Crown    Below Rim
  Node                 Type      Surcharged         Meters       Meters
  ---------------------------------------------------------------------
  WS02004404           JUNCTION        0.07          0.067        2.713
  WS02006109           JUNCTION        2.24          0.323        1.497
  WS02006110           JUNCTION        1.08          0.312        1.538
  WS02006112           JUNCTION        1.23          0.093        1.587
  WS02006228           JUNCTION        2.23          0.434        1.766
  WS02006229           JUNCTION        2.26          0.877        1.573
  WS02006230           JUNCTION        1.09          0.472        1.098
  WS02006231           JUNCTION        1.20          0.598        0.932
  WS02006232           JUNCTION        2.37          0.951        0.529
  WS02006234           JUNCTION        1.47          1.014        0.226
  WS02006235           JUNCTION        2.23          1.101        0.189
  WS02006238           JUNCTION        2.31          1.154        0.276
  WS02006239           JUNCTION        2.24          1.029        0.261
  WS02006240           JUNCTION        2.25          0.893        0.497
  WS02006242           JUNCTION        2.39          0.820        0.000
  WS02006243           JUNCTION        2.26          0.770        0.000
  WS02006245           JUNCTION        2.25          0.670        0.180
  WS02006247           JUNCTION        2.27          0.600        0.160
  WS02006248           JUNCTION        2.23          0.380        0.000
  WS02006249           JUNCTION        2.24          0.390        0.000
  WS02006251           JUNCTION        1.25          0.351        0.829
  WS02006252           JUNCTION        2.83          1.100        0.000
  WS02006256           JUNCTION        5.51          2.050        0.000
  YS02001580           JUNCTION        0.87          0.450        0.000
  YS02001583           JUNCTION        0.88          0.387        0.113
  YS02001586           JUNCTION        1.06          0.510        0.000
  YS02001590           JUNCTION        1.15          0.750        0.000
  YS02001593           JUNCTION        1.16          0.754        0.086
  YS02001596           JUNCTION        1.30          0.977        0.093
  YS02001600           JUNCTION        1.44          1.190        0.000
  YS02001601           JUNCTION        1.72          1.440        0.000
  YS02001602           JUNCTION        1.63          1.270        0.000
  YS02001605           JUNCTION        1.59          1.180        0.000
  YS02001607           JUNCTION        1.17          0.680        0.000
  YS02001610           JUNCTION        1.20          0.680        0.000
  YS02001613           JUNCTION        1.17          0.700        0.000
  YS02001616           JUNCTION        1.12          0.610        0.000
  YS02001619           JUNCTION        1.10          0.610        0.000
  YS02001622           JUNCTION        1.10          0.620        0.000
  YS02001625           JUNCTION        1.30          0.780        0.000
  YS02001629           JUNCTION        1.04          0.470        0.000
  YS02001633           JUNCTION        1.34          1.060        0.000
  YS02001641           JUNCTION        1.29          1.100        0.000
  YS02001644           JUNCTION        1.27          0.920        0.000
  YS02001647           JUNCTION        1.04          0.861        0.039
  YS02001649           JUNCTION        1.18          1.050        0.000
  YS02001652           JUNCTION        0.96          1.024        0.106
  YS02001655           JUNCTION        0.76          1.015        0.185
  YS02001658           JUNCTION        0.42          1.025        0.275
  YS02001661           JUNCTION        0.13          1.015        0.375
  YS02001748           JUNCTION        0.33          0.266        0.924
  YS02001751           JUNCTION        0.60          0.552        0.648
  YS02001754           JUNCTION        0.88          0.759        0.391
  YS02001757           JUNCTION        1.25          1.182        0.028
  YS02001759           JUNCTION        1.17          1.191        0.019
  YS02001762           JUNCTION        1.14          1.150        0.000
  YS02001765           JUNCTION        1.09          1.100        0.000
  YS02001767           JUNCTION        1.05          1.030        0.000
  YS02001770           JUNCTION        1.02          0.920        0.000
  YS02001774           JUNCTION        1.13          1.050        0.000
  YS02001779           JUNCTION        0.86          0.680        0.000
  YS02001783           JUNCTION        0.74          0.469        1.131
  YS02001784           JUNCTION        0.71          0.346        1.144
  YS02001786           JUNCTION        0.58          0.102        1.328
  YS02001882           JUNCTION        0.67          0.830        0.000
  YS02001884           JUNCTION        0.68          0.870        0.000
  YS02001887           JUNCTION        0.72          0.887        0.063
  YS02001890           JUNCTION        0.74          0.760        0.000
  YS02001895           JUNCTION        0.65          0.576        0.174
  YS02001898           JUNCTION        0.64          0.560        0.180
  YS02001901           JUNCTION        0.71          0.703        0.167
  YS02001904           JUNCTION        0.69          0.657        0.193
  YS02001907           JUNCTION        1.01          0.950        0.000
  YS02001910           JUNCTION        0.77          1.093        0.007
  YS02001915           JUNCTION        0.66          1.000        0.000
  YS02001918           JUNCTION        0.56          0.810        0.000
  YS02001920           JUNCTION        0.58          1.091        0.049
  YS02001923           JUNCTION        0.21          0.788        0.032
  YS02001926           JUNCTION        0.25          0.900        0.000
  YS02001929           JUNCTION        0.08          0.780        0.000
  YS02006553           JUNCTION        1.04          1.002        0.188
  YS02006556           JUNCTION        0.89          1.056        0.294
  YS02006558           JUNCTION        0.87          1.400        0.000
  YS02006561           JUNCTION        0.52          0.145        1.005
  YS02163301           JUNCTION        1.32          1.030        0.000
  YS02163601           JUNCTION        1.37          1.080        0.000
  YS02164001           JUNCTION        1.29          1.100        0.000
  
  
  *********************
  Node Flooding Summary
  *********************
  
  Flooding refers to all water that overflows a node, whether it ponds or not.
  --------------------------------------------------------------------------
                                                             Total   Maximum
                                 Maximum   Time of Max       Flood    Ponded
                        Hours       Rate    Occurrence      Volume     Depth
  Node                 Flooded       LPS   days hr:min    10^6 ltr    Meters
  --------------------------------------------------------------------------
  WS02006242              0.01      1.15      0  02:21       0.000     0.000
  WS02006243              0.01      0.27      0  02:44       0.000     0.000
  WS02006248              0.01     14.78      0  02:21       0.000     0.000
  WS02006249              1.23    103.80      0  01:52       0.304     0.000
  WS02006252              0.01    245.63      0  00:00       0.000     0.000
  WS02006256              1.53    293.19      0  00:00       0.530     0.000
  YS02001580              0.01     39.64      0  01:48       0.000     0.000
  YS02001586              0.70    667.29      0  02:04       0.732     0.000
  YS02001590              0.01      5.73      0  01:48       0.000     0.000
  YS02001600              0.01      4.83      0  02:44       0.000     0.000
  YS02001601              0.97   1631.78      0  02:03       2.183     0.000
  YS02001602              0.86     62.05      0  02:25       0.175     0.000
  YS02001605              0.01      0.38      0  01:52       0.000     0.000
  YS02001607              0.01      1.46      0  01:52       0.000     0.000
  YS02001610              0.75    951.94      0  02:05       1.215     0.000
  YS02001613              0.01      2.62      0  01:52       0.000     0.000
  YS02001616              0.03      3.23      0  01:52       0.000     0.000
  YS02001619              0.10     88.96      0  02:03       0.018     0.000
  YS02001622              0.01      1.29      0  01:52       0.000     0.000
  YS02001625              0.73   1502.96      0  02:05       2.056     0.000
  YS02001629              0.23    211.92      0  02:02       0.084     0.000
  YS02001633              0.01     10.40      0  02:05       0.000     0.000
  YS02001641              0.01     10.04      0  02:05       0.000     0.000
  YS02001644              0.34   1899.50      0  02:02       1.119     0.000
  YS02001649              0.01     74.61      0  02:05       0.000     0.000
  YS02001762              0.01     34.08      0  02:05       0.000     0.000
  YS02001765              0.01     41.62      0  02:05       0.000     0.000
  YS02001767              0.01     12.98      0  02:05       0.000     0.000
  YS02001770              0.08    176.65      0  02:02       0.029     0.000
  YS02001774              0.01     35.20      0  02:05       0.000     0.000
  YS02001779              0.30    850.49      0  02:03       0.496     0.000
  YS02001882              0.01     19.40      0  02:05       0.000     0.000
  YS02001884              0.01     19.57      0  02:05       0.000     0.000
  YS02001890              0.27    536.60      0  02:01       0.226     0.000
  YS02001907              0.50   2632.79      0  02:02       2.236     0.000
  YS02001915              0.01      5.96      0  02:05       0.000     0.000
  YS02001918              0.01    102.48      0  01:53       0.001     0.000
  YS02001926              0.01     75.61      0  01:53       0.000     0.000
  YS02001929              0.01    239.28      0  01:53       0.001     0.000
  YS02006558              0.01     42.01      0  02:05       0.000     0.000
  YS02163301              0.01      3.26      0  01:52       0.000     0.000
  YS02163601              0.01     42.16      0  02:05       0.000     0.000
  YS02164001              0.01     48.07      0  02:05       0.000     0.000
  
  
  **********************
  Storage Volume Summary
  **********************
  
  ------------------------------------------------------------------------------------------------
                         Average    Avg   Evap  Exfil     Maximum    Max    Time of Max    Maximum
                          Volume   Pcnt   Pcnt   Pcnt      Volume   Pcnt     Occurrence    Outflow
  Storage Unit           1000 m³   Full   Loss   Loss     1000 m³   Full    days hr:min        LPS
  ------------------------------------------------------------------------------------------------
  CC-storage               2.602   40.6    0.0    0.0       5.261   82.1       0  02:35    1783.53
  JK-storage               0.153   52.7    0.0    0.0       0.212   72.8       0  02:30    2300.00
  
  
  ***********************
  Outfall Loading Summary
  ***********************
  
  -----------------------------------------------------------
                         Flow       Avg       Max       Total
                         Freq      Flow      Flow      Volume
  Outfall Node           Pcnt       LPS       LPS    10^6 ltr
  -----------------------------------------------------------
  CC-1                  21.88    683.00    683.00       4.255
  CC-2                  21.09    683.00    683.00       4.095
  JK-1                  10.65   1000.00   1000.00       2.673
  JK-2                   2.38   1000.00   1000.00       0.622
  WSC                   99.96    297.25    558.62       6.554
  -----------------------------------------------------------
  System                31.19   3663.25   3924.37      18.199
  
  
  ********************
  Link Flow Summary
  ********************
  
  -----------------------------------------------------------------------------
                                 Maximum  Time of Max   Maximum    Max/    Max/
                                  |Flow|   Occurrence   |Veloc|    Full    Full
  Link                 Type          LPS  days hr:min     m/sec    Flow   Depth
  -----------------------------------------------------------------------------
  1                    CONDUIT    558.62     0  02:22      2.83    0.19    0.30
  WS02003060WS02003069 CONDUIT    556.93     0  02:19      1.64    0.22    0.34
  WS02003066WSF200     CONDUIT    540.33     0  02:18      2.86    0.09    0.22
  WS02003067WS02003066 CONDUIT    540.26     0  02:18      1.21    0.17    0.42
  WS02003069WS02003072 CONDUIT    556.99     0  02:20      1.37    0.27    0.39
  WS02003072WS02003073 CONDUIT    556.90     0  02:21      1.44    1.20    0.37
  WS02004401WS02004402 CONDUIT    542.92     0  02:20      0.98    0.65    0.89
  WS02004402WS02004403 CONDUIT    543.92     0  02:45      0.97    0.78    0.91
  WS02004403WS02004404 CONDUIT    564.25     0  02:43      0.92    0.41    0.96
  WS02004404WS02004405 CONDUIT    607.64     0  02:15      1.08    5.95    0.98
  WS02004405WS02004406 CONDUIT    549.09     0  02:18      0.99    1.08    0.96
  WS02004406WS02004407 CONDUIT    542.05     0  02:16      1.04    0.24    0.63
  WS02004407WS02004409 CONDUIT    541.30     0  02:16      1.56    0.19    0.48
  WS02004409WS02004410 CONDUIT    540.81     0  02:16      1.03    0.70    0.68
  WS02004410WS02004411 CONDUIT    540.63     0  02:17      0.95    0.74    0.69
  WS02004411WS02004412 CONDUIT    540.49     0  02:17      0.93    0.77    0.70
  WS02004412WS02004413 CONDUIT    540.49     0  02:17      0.82    0.36    0.78
  WS02004413WS02003067 CONDUIT    540.16     0  02:18      1.11    0.23    0.59
  WS02006109WS02006110 CONDUIT    585.74     0  02:21      1.17    1.13    1.00
  WS02006110WS02006113 CONDUIT    572.01     0  02:21      1.37    0.52    0.79
  WS02006111WS02006112 CONDUIT    544.07     0  01:58      1.81    0.26    0.67
  WS02006112WS02006115 CONDUIT    561.22     0  01:57      0.84    0.33    0.88
  WS02006113WS02006111 CONDUIT    562.22     0  03:12      2.47    0.67    0.46
  WS02006115WS02006116 CONDUIT    542.54     0  03:01      1.04    0.70    0.79
  WS02006116WS02004401 CONDUIT    540.99     0  02:22      0.98    0.75    0.87
  WS02006228WS02006109 CONDUIT    581.42     0  02:21      1.16    2.54    1.00
  WS02006229WS02006228 CONDUIT    575.53     0  02:21      1.14    1.91    1.00
  WS02006230WS02006229 CONDUIT    573.52     0  02:21      1.49   12.76    1.00
  WS02006231WS02006230 CONDUIT    578.09     0  02:20      1.59    8.77    1.00
  WS02006232WS02006231 CONDUIT    572.54     0  03:20      1.49    1.20    1.00
  WS02006234WS02006232 CONDUIT    571.69     0  03:20      1.49    1.16    1.00
  WS02006235WS02006234 CONDUIT    566.94     0  02:30      1.47    5.98    1.00
  WS02006238WS02006235 CONDUIT    423.94     0  02:25      1.45    0.95    1.00
  WS02006239WS02006238 CONDUIT    422.87     0  02:25      1.10    1.35    1.00
  WS02006240WS02006239 CONDUIT    421.85     0  02:55      1.24    1.33    1.00
  WS02006242WS02006240 CONDUIT    419.28     0  02:55      1.13    1.67    1.00
  WS02006243WS02006242 CONDUIT    419.53     0  01:55      1.40    0.90    1.00
  WS02006245WS02006243 CONDUIT    418.78     0  01:55      1.45    1.24    1.00
  WS02006247WS02006245 CONDUIT    418.53     0  01:55      1.43    3.32    1.00
  WS02006248WS02006247 CONDUIT    419.57     0  02:25      1.44    0.91    1.00
  WS02006249WS02006248 CONDUIT    435.83     0  01:51      1.36    2.39    1.00
  WS02006251WS02006249 CONDUIT    459.02     0  00:00      1.99    1.32    1.00
  WS02006252WS02006251 CONDUIT    409.93     0  02:44     24.61    1.50    1.00
  WS02006256WS02006235 CONDUIT    288.91     0  00:00      4.23    3.06    1.00
  WSF200WS02003060     CONDUIT    540.57     0  02:18      2.06    0.12    0.28
  YS02001580YS02001583 CONDUIT     74.72     0  01:48      0.56    0.29    1.00
  YS02001583YS02001586 CONDUIT    133.47     0  01:48      0.55    0.20    1.00
  YS02001586YS02001590 CONDUIT    318.47     0  02:13      1.24    0.56    1.00
  YS02001590YS02001593 CONDUIT    318.04     0  02:25      1.12    2.00    1.00
  YS02001593YS02001596 CONDUIT    317.98     0  02:31      1.70    0.50    1.00
  YS02001596YS02001600 CONDUIT    318.25     0  02:25      1.26    0.62    1.00
  YS02001600YS02001601 CONDUIT    318.06     0  02:25      1.12    0.55    1.00
  YS02001601YS02001602 CONDUIT    503.42     0  01:47      1.78    1.82    1.00
  YS02001602YS02001605 CONDUIT    503.62     0  01:47      1.78   10.66    1.00
  YS02001605YS02001607 CONDUIT    503.68     0  01:47      1.78    2.76    1.00
  YS02001607YS02001610 CONDUIT    502.03     0  01:47      0.64    0.48    1.00
  YS02001610YS02001613 CONDUIT    615.88     0  02:05      0.78    0.71    1.00
  YS02001613YS02001616 CONDUIT    615.72     0  02:05      0.78    0.53    1.00
  YS02001616YS02001619 CONDUIT    615.72     0  02:05      0.78    1.07    1.00
  YS02001619YS02001622 CONDUIT   1053.71     0  02:05      1.34    1.55    1.00
  YS02001622YS02001625 CONDUIT   1053.67     0  02:05      1.34    0.56    1.00
  YS02001625YS02001629 CONDUIT    921.19     0  01:51      1.17    0.44    1.00
  YS02001629YS02163301 CONDUIT    921.94     0  01:51      1.17    1.14    1.00
  YS02001633YS02163601 CONDUIT   1336.80     0  01:51      1.70    1.40    1.00
  YS02001641YS02001644 CONDUIT   1341.49     0  01:52      1.71    4.34    1.00
  YS02001644YS02001647 CONDUIT   1729.23     0  01:52      2.20    1.02    1.00
  YS02001647YS02001649 CONDUIT   1744.88     0  01:52      2.30    0.92    1.00
  YS02001649YS02001757 CONDUIT   1881.93     0  01:51      2.46    1.14    1.00
  YS02001652YS02001649 CONDUIT   1134.99     0  02:01      1.45    0.56    1.00
  YS02001655YS02001652 CONDUIT   1135.06     0  02:01      1.45    0.55    1.00
  YS02001658YS02001655 CONDUIT   1135.22     0  02:01      1.84    0.48    1.00
  YS02001661YS02001658 CONDUIT   1134.36     0  02:01      2.23    0.45    1.00
  YS02001664YS02001661 CONDUIT   1134.11     0  02:01      2.19    0.36    0.87
  YS02001745YS02001748 CONDUIT    717.05     0  02:01      2.09    0.28    0.96
  YS02001748YS02001751 CONDUIT    717.56     0  02:01      1.65    0.36    1.00
  YS02001751YS02001754 CONDUIT    718.62     0  02:01      1.41    0.35    1.00
  YS02001754YS02001757 CONDUIT    717.92     0  02:01      0.91    0.29    1.00
  YS02001757CaochengTiaoxuchi CONDUIT   3162.81     0  02:00      4.03    1.37    1.00
  YS02001759YS02001757 CONDUIT   1359.01     0  02:01      1.73    0.97    1.00
  YS02001762YS02001759 CONDUIT    704.61     0  01:56      0.90    0.81    1.00
  YS02001765YS02001762 CONDUIT    705.29     0  01:56      0.90    0.66    1.00
  YS02001767YS02001765 CONDUIT    706.34     0  01:56      0.90    0.89    1.00
  YS02001770YS02001767 CONDUIT    705.97     0  01:56      0.90    2.80    1.00
  YS02001774YS02001770 CONDUIT    850.58     0  02:03      1.08    0.54    1.00
  YS02001779YS02001774 CONDUIT    850.50     0  02:03      1.08    0.43    1.00
  YS02001783YS02001784 CONDUIT   1168.09     0  01:59      2.32    1.61    1.00
  YS02001784YS02001785 CONDUIT   1169.12     0  01:59      2.33    2.72    1.00
  YS02001786YS02001788 CONDUIT   1169.72     0  02:00      2.49    2.25    0.89
  YS02001788YS02001790 CONDUIT   1183.47     0  02:01      2.73    0.87    0.84
  YS02001790YS02001791 CONDUIT   1296.86     0  02:00      3.44    1.41    0.71
  YS02001791YS02001793 CONDUIT   1252.70     0  02:02      6.76    0.54    0.44
  YS02001793JiankangQianchi CONDUIT   1303.72     0  02:02      2.60    0.10    0.65
  YS02001882YS02001884 CONDUIT     46.17     0  01:50      0.16    0.05    1.00
  YS02001884YS02001887 CONDUIT     52.10     0  01:49      0.12    0.07    1.00
  YS02001887YS02001890 CONDUIT   1053.44     0  02:01      1.34    1.80    1.00
  YS02001890YS02001895 CONDUIT    521.31     0  02:05      0.66    0.24    1.00
  YS02001895YS02001898 CONDUIT    520.13     0  02:05      0.66    0.90    1.00
  YS02001898YS02001901 CONDUIT    517.83     0  02:08      0.66    0.33    1.00
  YS02001901YS02001904 CONDUIT    517.95     0  02:05      0.66    0.80    1.00
  YS02001904YS02001907 CONDUIT    520.34     0  02:05      0.66    0.18    1.00
  YS02001907YS02006553 CONDUIT    815.43     0  02:25      0.91    0.96    1.00
  YS02001910YS02001907 CONDUIT   1852.34     0  02:03      2.36    1.04    1.00
  YS02001915YS02001910 CONDUIT   1852.42     0  02:02      2.36    0.92    1.00
  YS02001918YS02001915 CONDUIT    615.36     0  02:03      0.78    0.34    1.00
  YS02001920YS02001918 CONDUIT    615.18     0  02:03      0.78    0.60    1.00
  YS02001923YS02001920 CONDUIT    644.34     0  02:05      0.82    0.29    1.00
  YS02001926YS02001923 CONDUIT    626.39     0  02:05      0.94    0.89    1.00
  YS02001929YS02001926 CONDUIT    631.78     0  02:05      1.09    0.30    1.00
  YS02006553YS02006556 CONDUIT    816.46     0  02:25      1.04    0.70    1.00
  YS02006556YS02006558 CONDUIT    817.95     0  02:25      1.04    0.65    1.00
  YS02006558YS02006561 CONDUIT   1167.89     0  01:59      4.13    2.58    1.00
  YS02006561YS02001783 CONDUIT   1168.30     0  01:59      2.32    0.61    1.00
  YS02163301YS02001633 CONDUIT    921.80     0  01:51      1.17    0.87    1.00
  YS02163601YS02164001 CONDUIT   1336.46     0  01:51      1.70    1.18    1.00
  YS02164001YS02001641 CONDUIT   1335.02     0  01:51      1.70    1.82    1.00
  CC-R1                PUMP       683.00     0  00:00              1.00
  CC-R2                PUMP       683.00     0  00:00              1.00
  CC-S1                PUMP       200.00     0  00:00              1.00
  CC-S2                PUMP       200.00     0  00:00              1.00
  JK-R1                PUMP      1000.00     0  00:00              1.00
  JK-R2                PUMP      1000.00     0  00:00              1.00
  JK-S                 PUMP       300.00     0  00:00              1.00
  
  
  ***************************
  Flow Classification Summary
  ***************************
  
  -------------------------------------------------------------------------------------
                      Adjusted    ---------- Fraction of Time in Flow Class ---------- 
                       /Actual         Up    Down  Sub   Sup   Up    Down  Norm  Inlet 
  Conduit               Length    Dry  Dry   Dry   Crit  Crit  Crit  Crit  Ltd   Ctrl  
  -------------------------------------------------------------------------------------
  1                       1.00   0.00  0.00  0.00  0.00  1.00  0.00  0.00  0.49  0.00
  WS02003060WS02003069    1.00   0.00  0.00  0.00  0.98  0.02  0.00  0.00  0.61  0.00
  WS02003066WSF200        1.00   0.13  0.00  0.00  0.00  0.87  0.00  0.00  0.72  0.00
  WS02003067WS02003066    1.00   0.10  0.02  0.00  0.88  0.00  0.00  0.00  0.00  0.00
  WS02003069WS02003072    1.00   0.00  0.00  0.00  0.99  0.01  0.00  0.00  0.69  0.00
  WS02003072WS02003073    1.00   0.00  0.00  0.00  0.00  0.00  0.00  1.00  0.00  0.00
  WS02004401WS02004402    1.00   0.02  0.00  0.00  0.98  0.00  0.00  0.00  0.00  0.00
  WS02004402WS02004403    1.00   0.02  0.00  0.00  0.97  0.00  0.00  0.00  0.00  0.00
  WS02004403WS02004404    1.00   0.00  0.03  0.00  0.97  0.00  0.00  0.00  0.00  0.00
  WS02004404WS02004405    1.00   0.00  0.00  0.00  1.00  0.00  0.00  0.00  0.01  0.00
  WS02004405WS02004406    1.00   0.00  0.00  0.00  1.00  0.00  0.00  0.00  0.00  0.00
  WS02004406WS02004407    1.00   0.00  0.05  0.00  0.95  0.00  0.00  0.00  0.00  0.00
  WS02004407WS02004409    1.00   0.05  0.00  0.00  0.94  0.01  0.00  0.00  0.94  0.00
  WS02004409WS02004410    1.00   0.05  0.00  0.00  0.95  0.00  0.00  0.00  0.03  0.00
  WS02004410WS02004411    1.00   0.05  0.00  0.00  0.95  0.00  0.00  0.00  0.01  0.00
  WS02004411WS02004412    1.00   0.05  0.00  0.00  0.95  0.00  0.00  0.00  0.00  0.00
  WS02004412WS02004413    1.00   0.05  0.00  0.00  0.94  0.00  0.00  0.00  0.01  0.00
  WS02004413WS02003067    1.00   0.06  0.04  0.00  0.00  0.00  0.90  0.00  0.00  0.00
  WS02006109WS02006110    1.00   0.00  0.01  0.00  0.98  0.00  0.01  0.00  0.00  0.00
  WS02006110WS02006113    1.00   0.01  0.01  0.00  0.98  0.00  0.00  0.00  0.00  0.00
  WS02006111WS02006112    1.00   0.02  0.00  0.00  0.98  0.00  0.00  0.00  0.98  0.00
  WS02006112WS02006115    1.00   0.02  0.00  0.00  0.97  0.00  0.00  0.00  0.00  0.00
  WS02006113WS02006111    1.00   0.02  0.00  0.00  0.00  0.98  0.00  0.00  0.16  0.00
  WS02006115WS02006116    1.00   0.02  0.00  0.00  0.97  0.00  0.00  0.01  0.00  0.00
  WS02006116WS02004401    1.00   0.02  0.00  0.00  0.98  0.00  0.00  0.00  0.00  0.00
  WS02006228WS02006109    1.00   0.00  0.00  0.00  1.00  0.00  0.00  0.00  0.00  0.00
  WS02006229WS02006228    1.00   0.00  0.00  0.00  0.99  0.00  0.00  0.01  0.00  0.00
  WS02006230WS02006229    1.00   0.00  0.00  0.00  0.99  0.00  0.00  0.01  0.02  0.00
  WS02006231WS02006230    1.00   0.00  0.00  0.00  0.33  0.00  0.67  0.00  0.00  0.00
  WS02006232WS02006231    1.00   0.00  0.00  0.00  0.99  0.00  0.01  0.00  0.00  0.00
  WS02006234WS02006232    1.00   0.00  0.00  0.00  1.00  0.00  0.00  0.00  0.21  0.00
  WS02006235WS02006234    1.00   0.00  0.00  0.00  0.75  0.00  0.25  0.00  0.00  0.00
  WS02006238WS02006235    1.00   0.00  0.00  0.00  1.00  0.00  0.00  0.00  0.00  0.00
  WS02006239WS02006238    1.00   0.00  0.00  0.00  1.00  0.00  0.00  0.00  0.31  0.00
  WS02006240WS02006239    1.00   0.00  0.00  0.00  0.65  0.00  0.00  0.34  0.02  0.00
  WS02006242WS02006240    1.00   0.00  0.00  0.00  1.00  0.00  0.00  0.00  0.00  0.00
  WS02006243WS02006242    1.00   0.00  0.00  0.00  0.99  0.00  0.00  0.00  0.43  0.00
  WS02006245WS02006243    1.00   0.00  0.00  0.00  0.71  0.00  0.00  0.29  0.01  0.00
  WS02006247WS02006245    1.00   0.00  0.00  0.00  0.99  0.00  0.00  0.01  0.00  0.00
  WS02006248WS02006247    1.00   0.00  0.00  0.00  0.99  0.00  0.00  0.01  0.21  0.00
  WS02006249WS02006248    1.00   0.00  0.00  0.00  0.55  0.00  0.45  0.00  0.00  0.00
  WS02006251WS02006249    1.00   0.00  0.00  0.00  1.00  0.00  0.00  0.00  0.46  0.00
  WS02006252WS02006251    1.00   0.00  0.48  0.00  0.16  0.00  0.36  0.00  0.00  0.00
  WS02006256WS02006235    1.00   0.00  0.00  0.00  1.00  0.00  0.00  0.00  0.00  0.00
  WSF200WS02003060        1.00   0.00  0.13  0.00  0.26  0.62  0.00  0.00  0.38  0.00
  YS02001580YS02001583    1.00   0.22  0.54  0.00  0.24  0.00  0.00  0.00  0.64  0.00
  YS02001583YS02001586    1.00   0.41  0.31  0.00  0.29  0.00  0.00  0.00  0.64  0.00
  YS02001586YS02001590    1.00   0.13  0.00  0.00  0.46  0.04  0.00  0.38  0.34  0.00
  YS02001590YS02001593    1.00   0.13  0.01  0.00  0.16  0.00  0.71  0.00  0.00  0.00
  YS02001593YS02001596    1.00   0.13  0.00  0.00  0.18  0.01  0.00  0.68  0.02  0.00
  YS02001596YS02001600    1.00   0.13  0.00  0.00  0.23  0.01  0.00  0.62  0.04  0.00
  YS02001600YS02001601    1.00   0.13  0.01  0.00  0.86  0.00  0.00  0.00  0.58  0.00
  YS02001601YS02001602    1.00   0.13  0.01  0.00  0.87  0.00  0.00  0.00  0.00  0.00
  YS02001602YS02001605    1.00   0.13  0.00  0.00  0.87  0.00  0.00  0.00  0.00  0.00
  YS02001605YS02001607    1.00   0.13  0.00  0.00  0.87  0.00  0.00  0.00  0.00  0.00
  YS02001607YS02001610    1.00   0.13  0.01  0.00  0.86  0.00  0.00  0.00  0.01  0.00
  YS02001610YS02001613    1.00   0.13  0.00  0.00  0.87  0.00  0.00  0.00  0.00  0.00
  YS02001613YS02001616    1.00   0.13  0.00  0.00  0.87  0.00  0.00  0.00  0.00  0.00
  YS02001616YS02001619    1.00   0.13  0.00  0.00  0.87  0.00  0.00  0.00  0.00  0.00
  YS02001619YS02001622    1.00   0.13  0.00  0.00  0.87  0.00  0.00  0.00  0.28  0.00
  YS02001622YS02001625    1.00   0.13  0.00  0.00  0.87  0.00  0.00  0.00  0.03  0.00
  YS02001625YS02001629    1.00   0.13  0.04  0.00  0.21  0.00  0.63  0.00  0.00  0.00
  YS02001629YS02163301    1.00   0.14  0.01  0.00  0.85  0.00  0.00  0.00  0.00  0.00
  YS02001633YS02163601    1.00   0.00  0.01  0.00  0.99  0.00  0.00  0.00  0.14  0.00
  YS02001641YS02001644    1.00   0.00  0.01  0.00  0.99  0.00  0.00  0.00  0.00  0.00
  YS02001644YS02001647    1.00   0.00  0.16  0.00  0.84  0.00  0.00  0.00  0.00  0.00
  YS02001647YS02001649    1.00   0.00  0.16  0.00  0.58  0.26  0.00  0.00  0.54  0.00
  YS02001649YS02001757    1.00   0.00  0.00  0.00  0.86  0.14  0.00  0.00  0.39  0.00
  YS02001652YS02001649    1.00   0.00  0.00  0.00  0.97  0.03  0.00  0.00  0.71  0.00
  YS02001655YS02001652    1.00   0.00  0.00  0.00  0.23  0.01  0.00  0.76  0.04  0.00
  YS02001658YS02001655    1.00   0.00  0.14  0.00  0.71  0.15  0.00  0.00  0.63  0.00
  YS02001661YS02001658    1.00   0.14  0.00  0.00  0.55  0.31  0.00  0.00  0.65  0.00
  YS02001664YS02001661    1.00   0.13  0.00  0.00  0.79  0.09  0.00  0.00  0.83  0.00
  YS02001745YS02001748    1.00   0.00  0.00  0.00  0.15  0.00  0.00  0.84  0.05  0.00
  YS02001748YS02001751    1.00   0.00  0.00  0.00  0.87  0.13  0.00  0.00  0.73  0.00
  YS02001751YS02001754    1.00   0.00  0.00  0.00  0.21  0.00  0.00  0.78  0.03  0.00
  YS02001754YS02001757    1.00   0.00  0.00  0.00  1.00  0.00  0.00  0.00  0.77  0.00
  YS02001757CaochengTiaoxuchi    1.00   0.00  0.00  0.00  1.00  0.00  0.00  0.00  0.60  0.00
  YS02001759YS02001757    1.00   0.00  0.00  0.00  0.99  0.01  0.00  0.00  0.51  0.00
  YS02001762YS02001759    1.00   0.00  0.00  0.00  1.00  0.00  0.00  0.00  0.04  0.00
  YS02001765YS02001762    1.00   0.00  0.00  0.00  1.00  0.00  0.00  0.00  0.63  0.00
  YS02001767YS02001765    1.00   0.00  0.00  0.00  1.00  0.00  0.00  0.00  0.01  0.00
  YS02001770YS02001767    1.00   0.00  0.00  0.00  1.00  0.00  0.00  0.00  0.00  0.00
  YS02001774YS02001770    1.00   0.00  0.13  0.00  0.71  0.00  0.16  0.00  0.02  0.00
  YS02001779YS02001774    1.00   0.00  0.00  0.00  1.00  0.00  0.00  0.00  0.73  0.00
  YS02001783YS02001784    1.00   0.00  0.17  0.00  0.83  0.00  0.00  0.00  0.55  0.00
  YS02001784YS02001785    1.00   0.00  0.00  0.00  1.00  0.00  0.00  0.00  0.15  0.00
  YS02001786YS02001788    1.00   0.00  0.00  0.00  0.79  0.21  0.00  0.00  0.00  0.00
  YS02001788YS02001790    1.00   0.00  0.00  0.00  0.22  0.78  0.00  0.00  0.78  0.00
  YS02001790YS02001791    1.00   0.00  0.00  0.00  0.01  0.99  0.00  0.00  0.16  0.00
  YS02001791YS02001793    1.00   0.00  0.00  0.00  0.00  1.00  0.00  0.00  0.01  0.00
  YS02001793JiankangQianchi    1.00   0.00  0.00  0.00  0.96  0.04  0.00  0.00  0.95  0.00
  YS02001882YS02001884    1.00   0.15  0.01  0.00  0.85  0.00  0.00  0.00  0.00  0.00
  YS02001884YS02001887    1.00   0.06  0.05  0.00  0.89  0.00  0.00  0.00  0.00  0.00
  YS02001887YS02001890    1.00   0.00  0.00  0.00  0.97  0.00  0.03  0.00  0.00  0.00
  YS02001890YS02001895    1.00   0.00  0.15  0.00  0.85  0.00  0.00  0.00  0.00  0.00
  YS02001895YS02001898    1.00   0.15  0.00  0.00  0.83  0.00  0.02  0.00  0.00  0.00
  YS02001898YS02001901    1.00   0.16  0.00  0.00  0.84  0.00  0.00  0.00  0.01  0.00
  YS02001901YS02001904    1.00   0.16  0.00  0.00  0.84  0.00  0.00  0.00  0.00  0.00
  YS02001904YS02001907    1.00   0.00  0.15  0.00  0.84  0.00  0.00  0.00  0.00  0.00
  YS02001907YS02006553    1.00   0.00  0.02  0.00  0.98  0.00  0.00  0.00  0.00  0.00
  YS02001910YS02001907    1.00   0.00  0.00  0.00  0.97  0.00  0.00  0.03  0.12  0.00
  YS02001915YS02001910    1.00   0.00  0.00  0.00  0.97  0.03  0.00  0.00  0.13  0.00
  YS02001918YS02001915    1.00   0.00  0.01  0.00  0.98  0.02  0.00  0.00  0.71  0.00
  YS02001920YS02001918    1.00   0.00  0.01  0.00  0.99  0.00  0.00  0.00  0.00  0.00
  YS02001923YS02001920    1.00   0.00  0.00  0.00  1.00  0.00  0.00  0.00  0.90  0.00
  YS02001926YS02001923    1.00   0.00  0.07  0.00  0.08  0.00  0.84  0.00  0.00  0.00
  YS02001929YS02001926    1.00   0.00  0.13  0.00  0.87  0.00  0.00  0.00  0.80  0.00
  YS02006553YS02006556    1.00   0.01  0.00  0.00  0.99  0.00  0.00  0.00  0.03  0.00
  YS02006556YS02006558    1.00   0.00  0.00  0.00  1.00  0.00  0.00  0.00  0.00  0.00
  YS02006558YS02006561    1.00   0.17  0.00  0.00  0.08  0.76  0.00  0.00  0.17  0.00
  YS02006561YS02001783    1.00   0.17  0.00  0.00  0.12  0.72  0.00  0.00  0.66  0.00
  YS02163301YS02001633    1.00   0.00  0.14  0.00  0.86  0.00  0.00  0.00  0.00  0.00
  YS02163601YS02164001    1.00   0.00  0.08  0.00  0.92  0.00  0.00  0.00  0.00  0.00
  YS02164001YS02001641    1.00   0.01  0.07  0.00  0.92  0.00  0.00  0.00  0.05  0.00
  
  
  *************************
  Conduit Surcharge Summary
  *************************
  
  ----------------------------------------------------------------------------
                                                           Hours        Hours 
                         --------- Hours Full --------   Above Full   Capacity
  Conduit                Both Ends  Upstream  Dnstream   Normal Flow   Limited
  ----------------------------------------------------------------------------
  WS02003072WS02003073        0.01      0.01      0.01      1.51         0.01
  WS02004403WS02004404        0.01      0.01      0.04      0.01         0.01
  WS02004404WS02004405        0.01      0.04      0.01      4.26         0.01
  WS02004405WS02004406        0.01      0.01      0.01      1.03         0.01
  WS02006109WS02006110        1.08      1.08      2.37      1.17         0.01
  WS02006110WS02006113        0.01      0.01      2.31      0.01         0.01
  WS02006111WS02006112        0.01      0.01      3.16      0.01         0.01
  WS02006112WS02006115        0.01      0.01      1.23      0.01         0.01
  WS02006228WS02006109        2.24      2.37      2.24      3.34         2.24
  WS02006229WS02006228        2.23      2.26      2.23      2.88         2.22
  WS02006230WS02006229        2.50      2.79      2.50      4.75         2.50
  WS02006231WS02006230        1.09      1.09      1.24      4.49         0.01
  WS02006232WS02006231        1.19      1.19      2.37      1.28         0.01
  WS02006234WS02006232        2.20      2.20      2.37      1.25         1.25
  WS02006235WS02006234        1.46      1.47      2.22      4.41         0.01
  WS02006238WS02006235        2.26      2.26      2.38      0.01         0.01
  WS02006239WS02006238        2.31      2.36      2.31      2.68         2.04
  WS02006240WS02006239        2.24      2.28      2.24      2.65         1.87
  WS02006242WS02006240        2.25      2.25      2.50      3.03         0.01
  WS02006243WS02006242        2.27      2.27      2.39      0.01         0.03
  WS02006245WS02006243        2.25      2.26      2.26      1.54         1.32
  WS02006247WS02006245        2.25      2.28      2.25      4.12         2.23
  WS02006248WS02006247        2.24      2.24      2.27      0.01         0.04
  WS02006249WS02006248        2.22      2.23      2.24      4.10         0.01
  WS02006251WS02006249        2.23      2.25      2.24      2.75         2.17
  WS02006252WS02006251        2.82      2.82      2.83      2.83         0.01
  WS02006256WS02006235        4.42      4.44      5.48      1.53         0.01
  YS02001580YS02001583        0.87      0.87      0.94      0.01         0.01
  YS02001583YS02001586        0.88      0.88      1.06      0.01         0.01
  YS02001586YS02001590        1.07      1.07      1.15      0.01         0.01
  YS02001590YS02001593        1.16      1.16      1.18      1.20         0.01
  YS02001593YS02001596        1.17      1.17      1.30      0.01         0.01
  YS02001596YS02001600        1.35      1.35      1.44      0.01         0.01
  YS02001600YS02001601        1.49      1.49      1.72      0.01         0.01
  YS02001601YS02001602        1.63      1.63      1.75      1.43         0.01
  YS02001602YS02001605        1.59      1.59      1.63      2.47         0.01
  YS02001605YS02001607        1.56      1.59      1.56      1.66         1.54
  YS02001607YS02001610        1.17      1.17      1.20      0.01         0.01
  YS02001610YS02001613        1.17      1.17      1.20      0.01         0.01
  YS02001613YS02001616        1.12      1.12      1.17      0.01         0.01
  YS02001616YS02001619        1.10      1.10      1.12      0.09         0.11
  YS02001619YS02001622        1.10      1.10      1.10      1.09         0.97
  YS02001622YS02001625        1.10      1.10      1.30      0.01         0.01
  YS02001625YS02001629        1.04      1.04      1.30      0.01         0.01
  YS02001629YS02163301        1.31      1.31      1.32      0.08         0.13
  YS02001633YS02163601        1.34      1.34      1.37      0.22         0.25
  YS02001641YS02001644        1.27      1.29      1.27      1.78         1.25
  YS02001644YS02001647        1.04      1.04      1.27      0.01         0.01
  YS02001647YS02001649        1.04      1.04      1.18      0.01         0.01
  YS02001649YS02001757        1.18      1.18      1.25      0.10         0.05
  YS02001652YS02001649        1.00      1.00      1.18      0.01         0.01
  YS02001655YS02001652        0.76      0.76      0.96      0.01         0.01
  YS02001658YS02001655        0.42      0.42      0.76      0.01         0.01
  YS02001661YS02001658        0.13      0.13      0.42      0.01         0.01
  YS02001664YS02001661        0.01      0.01      0.19      0.01         0.01
  YS02001745YS02001748        0.01      0.01      0.33      0.01         0.01
  YS02001748YS02001751        0.38      0.38      0.60      0.01         0.01
  YS02001751YS02001754        0.60      0.60      0.88      0.01         0.01
  YS02001754YS02001757        0.93      0.93      1.25      0.01         0.01
  YS02001757CaochengTiaoxuchi        1.25      1.25      2.13      0.48         0.44
  YS02001759YS02001757        1.17      1.17      1.25      0.01         0.01
  YS02001762YS02001759        1.14      1.14      1.17      0.01         0.02
  YS02001765YS02001762        1.09      1.09      1.14      0.01         0.01
  YS02001767YS02001765        1.05      1.05      1.09      0.01         0.02
  YS02001770YS02001767        1.04      1.04      1.05      0.73         0.66
  YS02001774YS02001770        1.02      1.02      1.13      0.01         0.01
  YS02001779YS02001774        0.86      0.86      1.13      0.01         0.01
  YS02001783YS02001784        0.71      0.74      0.71      0.93         0.71
  YS02001784YS02001785        0.58      0.71      0.58      1.24         0.58
  YS02001786YS02001788        0.01      0.58      0.01      1.06         0.01
  YS02001790YS02001791        0.01      0.01      0.01      0.69         0.01
  YS02001793JiankangQianchi        0.01      0.01      7.70      0.01         0.01
  YS02001882YS02001884        0.67      0.67      0.68      0.01         0.01
  YS02001884YS02001887        0.71      0.71      0.72      0.01         0.01
  YS02001887YS02001890        0.74      0.74      0.75      0.20         0.01
  YS02001890YS02001895        0.65      0.65      0.78      0.01         0.01
  YS02001895YS02001898        0.64      0.64      0.65      0.01         0.01
  YS02001898YS02001901        0.66      0.66      0.71      0.01         0.01
  YS02001901YS02001904        0.69      0.69      0.71      0.01         0.01
  YS02001904YS02001907        0.69      0.69      1.04      0.01         0.01
  YS02001907YS02006553        1.26      1.26      1.35      0.01         0.01
  YS02001910YS02001907        0.77      0.77      1.01      0.06         0.06
  YS02001915YS02001910        0.66      0.66      0.77      0.01         0.01
  YS02001918YS02001915        0.56      0.56      0.66      0.01         0.01
  YS02001920YS02001918        0.56      0.56      0.58      0.01         0.01
  YS02001923YS02001920        0.51      0.51      0.58      0.01         0.01
  YS02001926YS02001923        0.21      0.21      0.25      0.01         0.01
  YS02001929YS02001926        0.08      0.08      0.25      0.01         0.01
  YS02006553YS02006556        0.89      0.89      1.04      0.01         0.01
  YS02006556YS02006558        0.96      0.96      1.06      0.01         0.01
  YS02006558YS02006561        0.60      0.87      0.60      1.17         0.60
  YS02006561YS02001783        0.52      0.52      0.74      0.01         0.01
  YS02163301YS02001633        1.32      1.32      1.35      0.01         0.01
  YS02163601YS02164001        1.29      1.29      1.37      0.09         0.01
  YS02164001YS02001641        1.29      1.29      1.29      0.81         0.74
  
  
  ***************
  Pumping Summary
  ***************
  
  ---------------------------------------------------------------------------------------------------------
                                                  Min       Avg       Max     Total     Power    % Time Off
                        Percent   Number of      Flow      Flow      Flow    Volume     Usage    Pump Curve
  Pump                 Utilized   Start-Ups       LPS       LPS       LPS  10^6 ltr     Kw-hr    Low   High
  ---------------------------------------------------------------------------------------------------------
  CC-R1                   21.63           3      0.00    683.00    683.00     4.255     81.83    0.0    8.8
  CC-R2                   20.82           5      0.00    683.00    683.00     4.096     78.66    0.0   14.8
  CC-S1                   49.70           5      0.00    200.00    200.00     2.863     16.44    0.0    0.0
  CC-S2                   37.40          10      0.00    200.00    200.00     2.154     12.13    0.0    0.0
  JK-R1                    9.28          11      0.00   1000.00   1000.00     2.673     28.57    0.0    0.0
  JK-R2                    2.16           9      0.00   1000.00   1000.00     0.621      4.95    0.0    0.0
  JK-S                    19.18          11      0.00    300.00    300.00     1.657     25.86    0.0    0.0
  

  Analysis begun on:  Wed Jan 15 10:35:31 2025
  Analysis ended on:  Wed Jan 15 10:35:33 2025
  Total elapsed time: 00:00:02