
  EPA STORM WATER MANAGEMENT MODEL - VERSION 5.2 (Build 5.2.4)
  PYSWMM TOOLKIT API - VERSION v1.0 (2023-11-27)
  ------------------------------------------------------------

  WARNING 04: minimum elevation drop used for Conduit WS02004404WS02004405
  WARNING 03: negative offset ignored for Link YS02001904YS02001907
  
  ****************
  Analysis Options
  ****************
  Flow Units ............... LPS
  Process Models:
    Rainfall/Runoff ........ YES
    RDII ................... NO
    Snowmelt ............... NO
    Groundwater ............ NO
    Flow Routing ........... YES
    Ponding Allowed ........ NO
    Water Quality .......... NO
  Infiltration Method ...... HORTON
  Flow Routing Method ...... DYNWAVE
  Surcharge Method ......... EXTRAN
  Starting Date ............ 08/28/2015 08:00:00
  Ending Date .............. 08/28/2015 16:00:00
  Antecedent Dry Days ...... 8.0
  Report Time Step ......... 00:01:00
  Wet Time Step ............ 00:01:00
  Dry Time Step ............ 00:01:00
  Routing Time Step ........ 30.00 sec
  Variable Time Step ....... YES
  Maximum Trials ........... 8
  Number of Threads ........ 4
  Head Tolerance ........... 0.001500 m
  
  
  **************************        Volume         Depth
  Runoff Quantity Continuity     hectare-m            mm
  **************************     ---------       -------
  Total Precipitation ......         1.631        49.163
  Evaporation Loss .........         0.000         0.000
  Infiltration Loss ........         0.098         2.955
  Surface Runoff ...........         1.500        45.222
  Final Storage ............         0.033         0.994
  Continuity Error (%) .....        -0.017
  
  
  **************************        Volume        Volume
  Flow Routing Continuity        hectare-m      10^6 ltr
  **************************     ---------     ---------
  Dry Weather Inflow .......         0.025         0.251
  Wet Weather Inflow .......         1.500        15.002
  Groundwater Inflow .......         0.000         0.000
  RDII Inflow ..............         0.000         0.000
  External Inflow ..........         0.083         0.834
  External Outflow .........         1.382        13.821
  Flooding Loss ............         0.279         2.791
  Evaporation Loss .........         0.000         0.000
  Exfiltration Loss ........         0.000         0.000
  Initial Stored Volume ....         0.243         2.431
  Final Stored Volume ......         0.198         1.979
  Continuity Error (%) .....        -0.395
  
  
  *************************
  Highest Continuity Errors
  *************************
  Node YS02001884 (5.12%)
  Node YS02001583 (-4.73%)
  Node YS02001774 (1.46%)
  
  
  ***************************
  Time-Step Critical Elements
  ***************************
  Link WS02006252WS02006251 (55.33%)
  Link WS02006238WS02006235 (15.92%)
  Link WS02004404WS02004405 (11.32%)
  Link YS02001791YS02001793 (3.89%)
  Link WS02003066WSF200 (3.11%)
  
  
  ********************************
  Highest Flow Instability Indexes
  ********************************
  Link WS02006113WS02006111 (51)
  Link WS02006111WS02006112 (18)
  Link WS02004404WS02004405 (14)
  Link WS02006256WS02006235 (14)
  Link WS02004403WS02004404 (13)
  
  
  *********************************
  Most Frequent Nonconverging Nodes
  *********************************
  Node CC-1 (10.24%)
  Node CC-2 (10.24%)
  Node JK-1 (10.24%)
  Node JK-2 (10.24%)
  Node WSC (10.24%)
  
  
  *************************
  Routing Time Step Summary
  *************************
  Minimum Time Step           :     0.02 sec
  Average Time Step           :     1.72 sec
  Maximum Time Step           :     7.04 sec
  % of Time in Steady State   :     0.00
  Average Iterations per Step :     2.88
  % of Steps Not Converging   :    10.24
  Time Step Frequencies       :
     30.000 - 13.228 sec      :     0.00 %
     13.228 -  5.833 sec      :     7.40 %
      5.833 -  2.572 sec      :    13.02 %
      2.572 -  1.134 sec      :    18.66 %
      1.134 -  0.500 sec      :    60.92 %
  
  
  ***************************
  Subcatchment Runoff Summary
  ***************************
  
  ------------------------------------------------------------------------------------------------------------------------------
                            Total      Total      Total      Total     Imperv       Perv      Total       Total     Peak  Runoff
                           Precip      Runon       Evap      Infil     Runoff     Runoff     Runoff      Runoff   Runoff   Coeff
  Subcatchment                 mm         mm         mm         mm         mm         mm         mm    10^6 ltr      LPS
  ------------------------------------------------------------------------------------------------------------------------------
  sub60                     49.16       0.00       0.00       1.78      42.06       4.12      46.18        0.61   378.63   0.939
  sub61                     49.16       0.00       0.00       2.58      39.67       5.78      45.45        0.83   525.23   0.924
  sub62                     49.16       0.00       0.00       1.19      43.94       2.75      46.69        1.28   743.10   0.950
  sub63                     49.16       0.00       0.00       4.78      33.93       9.48      43.42        0.99   589.38   0.883
  sub64                     49.16       0.00       0.00       2.41      40.58       4.96      45.54        1.09   604.94   0.926
  sub65                     49.16       0.00       0.00       2.09      41.51       4.30      45.82        1.26   675.57   0.932
  sub66                     49.16       0.00       0.00       5.88      33.83       8.38      42.21        1.97   880.53   0.859
  sub67                     49.16       0.00       0.00       1.14      43.98       2.79      46.77        0.87   573.07   0.951
  sub68                     49.16       0.00       0.00       2.14      41.09       4.74      45.83        1.26   759.90   0.932
  sub69                     49.16       0.00       0.00       1.90      41.67       5.47      47.15        1.75   899.52   0.959
  sub70                     49.16       0.00       0.00       6.28      32.28      10.43      42.71        1.23   495.66   0.869
  sub71                     49.16       0.00       0.00       1.22      43.90       2.72      46.61        1.22   655.53   0.948
  sub72                     49.16       0.00       0.00       1.08      44.32       2.36      46.67        0.64   317.42   0.949
  
  
  ******************
  Node Depth Summary
  ******************
  
  ---------------------------------------------------------------------------------
                                 Average  Maximum  Maximum  Time of Max    Reported
                                   Depth    Depth      HGL   Occurrence   Max Depth
  Node                 Type       Meters   Meters   Meters  days hr:min      Meters
  ---------------------------------------------------------------------------------
  WS02003060           JUNCTION     0.25     0.38     5.31     0  03:08        0.38
  WS02003066           JUNCTION     0.20     0.30     5.85     0  03:08        0.30
  WS02003067           JUNCTION     0.52     0.70     6.02     0  03:08        0.70
  WS02003069           JUNCTION     0.27     0.43     5.01     0  03:09        0.43
  WS02003072           JUNCTION     0.34     0.50     4.87     0  03:09        0.50
  WS02003073           JUNCTION     0.19     0.30     4.36     0  03:10        0.30
  WS02004401           JUNCTION     0.61     0.87     6.87     0  03:05        0.87
  WS02004402           JUNCTION     0.64     0.90     6.86     0  03:06        0.90
  WS02004403           JUNCTION     0.67     0.92     6.85     0  03:06        0.92
  WS02004404           JUNCTION     0.74     1.01     6.86     0  02:35        1.00
  WS02004405           JUNCTION     0.73     0.96     6.81     0  02:33        0.96
  WS02004406           JUNCTION     0.74     0.96     6.79     0  03:06        0.96
  WS02004407           JUNCTION     0.19     0.30     6.61     0  03:06        0.29
  WS02004409           JUNCTION     0.41     0.67     6.44     0  03:06        0.67
  WS02004410           JUNCTION     0.43     0.68     6.40     0  03:07        0.68
  WS02004411           JUNCTION     0.46     0.69     6.37     0  03:07        0.69
  WS02004412           JUNCTION     0.48     0.70     6.34     0  03:07        0.70
  WS02004413           JUNCTION     0.64     0.86     6.33     0  03:07        0.86
  WS02006109           JUNCTION     0.66     1.28     7.90     0  02:43        0.99
  WS02006110           JUNCTION     0.66     1.43     8.01     0  02:43        0.93
  WS02006111           JUNCTION     0.18     0.29     7.00     0  02:56        0.29
  WS02006112           JUNCTION     0.77     1.08     6.97     0  02:44        1.06
  WS02006113           JUNCTION     0.28     0.46     7.35     0  02:56        0.46
  WS02006115           JUNCTION     0.49     0.77     6.91     0  03:05        0.77
  WS02006116           JUNCTION     0.58     0.85     6.89     0  03:05        0.85
  WS02006228           JUNCTION     0.65     1.31     7.96     0  02:43        1.08
  WS02006229           JUNCTION     0.62     1.36     8.06     0  02:43        1.10
  WS02006230           JUNCTION     0.61     1.62     8.36     0  02:43        1.24
  WS02006231           JUNCTION     0.42     1.84     8.96     0  02:36        0.99
  WS02006232           JUNCTION     0.55     2.18     9.22     0  05:08        2.18
  WS02006234           JUNCTION     0.47     1.96     9.12     0  05:08        1.96
  WS02006235           JUNCTION     0.50     1.86     9.03     0  05:08        1.86
  WS02006238           JUNCTION     0.53     1.95     9.09     0  02:56        1.95
  WS02006239           JUNCTION     0.50     2.03     9.24     0  02:56        2.03
  WS02006240           JUNCTION     0.46     1.93     9.22     0  02:56        1.93
  WS02006242           JUNCTION     0.53     1.55     8.82     0  02:56        1.55
  WS02006243           JUNCTION     0.43     1.48     8.90     0  02:56        1.48
  WS02006245           JUNCTION     0.43     1.49     8.98     0  02:56        1.49
  WS02006247           JUNCTION     0.45     1.40     8.90     0  02:56        1.40
  WS02006248           JUNCTION     0.41     1.10     8.69     0  02:25        1.10
  WS02006249           JUNCTION     0.44     1.09     8.69     0  01:54        1.09
  WS02006251           JUNCTION     0.43     1.80     9.47     0  02:25        1.17
  WS02006252           JUNCTION     0.34     1.50     9.74     0  00:00        1.50
  WS02006256           JUNCTION     0.91     2.35     9.28     0  00:00        2.35
  WSF200               JUNCTION     0.18     0.29     5.52     0  03:08        0.29
  YS02001580           JUNCTION     0.07     1.05     9.59     0  02:07        0.78
  YS02001583           JUNCTION     0.10     1.14     9.64     0  02:07        0.82
  YS02001586           JUNCTION     0.16     1.13     9.30     0  02:07        1.13
  YS02001590           JUNCTION     0.26     1.39     9.25     0  02:07        1.37
  YS02001593           JUNCTION     0.19     1.31     9.17     0  02:07        1.28
  YS02001596           JUNCTION     0.25     1.67     9.09     0  02:07        1.66
  YS02001600           JUNCTION     0.30     1.87     9.00     0  02:07        1.86
  YS02001601           JUNCTION     0.50     2.06     8.90     0  02:06        2.06
  YS02001602           JUNCTION     0.42     1.87     8.77     0  02:06        1.87
  YS02001605           JUNCTION     0.39     1.78     8.68     0  02:06        1.78
  YS02001607           JUNCTION     0.39     1.65     8.50     0  02:24        1.65
  YS02001610           JUNCTION     0.44     1.68     8.48     0  02:06        1.68
  YS02001613           JUNCTION     0.40     1.68     8.52     0  02:06        1.65
  YS02001616           JUNCTION     0.33     1.61     8.52     0  02:06        1.58
  YS02001619           JUNCTION     0.30     1.59     8.52     0  02:06        1.57
  YS02001622           JUNCTION     0.29     1.57     8.47     0  02:06        1.55
  YS02001625           JUNCTION     0.56     1.78     8.38     0  02:06        1.78
  YS02001629           JUNCTION     0.40     1.85     8.40     0  02:06        1.85
  YS02001633           JUNCTION     0.48     2.05     8.50     0  02:11        1.97
  YS02001641           JUNCTION     0.47     1.97     8.40     0  02:11        1.93
  YS02001644           JUNCTION     0.46     1.92     8.35     0  02:11        1.92
  YS02001647           JUNCTION     0.24     1.82     8.43     0  02:12        1.69
  YS02001649           JUNCTION     0.27     2.02     8.41     0  02:12        1.86
  YS02001652           JUNCTION     0.16     2.14     8.73     0  02:12        1.69
  YS02001655           JUNCTION     0.12     2.20     9.05     0  02:12        1.47
  YS02001658           JUNCTION     0.08     2.30     9.44     0  02:12        1.22
  YS02001661           JUNCTION     0.13     1.04     8.44     0  02:13        0.99
  YS02001664           JUNCTION     0.05     0.48     8.41     0  02:13        0.31
  YS02001745           JUNCTION     0.05     0.68     8.20     0  02:13        0.59
  YS02001748           JUNCTION     0.08     2.27     9.35     0  02:12        1.08
  YS02001751           JUNCTION     0.10     2.17     9.05     0  02:12        1.27
  YS02001754           JUNCTION     0.13     2.09     8.70     0  02:12        1.52
  YS02001757           JUNCTION     0.28     2.08     8.35     0  02:12        1.86
  YS02001759           JUNCTION     0.22     2.09     8.45     0  02:12        1.85
  YS02001762           JUNCTION     0.21     2.15     8.55     0  02:10        1.85
  YS02001765           JUNCTION     0.19     2.10     8.55     0  02:10        1.84
  YS02001767           JUNCTION     0.19     2.03     8.52     0  02:10        1.84
  YS02001770           JUNCTION     0.21     1.95     8.44     0  02:11        1.89
  YS02001774           JUNCTION     0.28     2.05     8.47     0  02:11        1.96
  YS02001779           JUNCTION     0.12     1.68     8.37     0  02:11        1.68
  YS02001783           JUNCTION     0.21     1.34     7.48     0  02:10        1.22
  YS02001784           JUNCTION     0.23     1.16     7.23     0  02:10        1.11
  YS02001786           JUNCTION     0.19     0.93     6.96     0  02:10        0.86
  YS02001788           JUNCTION     0.14     0.62     6.60     0  02:12        0.62
  YS02001790           JUNCTION     0.17     0.72     6.37     0  02:15        0.72
  YS02001791           JUNCTION     0.11     0.44     5.91     0  02:12        0.43
  YS02001793           JUNCTION     0.06     0.29     5.12     0  02:13        0.27
  YS02001882           JUNCTION     0.27     1.79     8.51     0  02:08        1.62
  YS02001884           JUNCTION     0.37     1.86     8.48     0  02:08        1.72
  YS02001887           JUNCTION     0.44     1.87     8.41     0  02:08        1.80
  YS02001890           JUNCTION     0.48     1.81     8.32     0  02:08        1.81
  YS02001895           JUNCTION     0.24     1.58     8.32     0  02:10        1.56
  YS02001898           JUNCTION     0.25     1.58     8.32     0  02:10        1.56
  YS02001901           JUNCTION     0.37     1.68     8.29     0  02:10        1.67
  YS02001904           JUNCTION     0.35     1.64     8.27     0  02:10        1.64
  YS02001907           JUNCTION     0.67     1.96     8.25     0  02:10        1.96
  YS02001910           JUNCTION     0.47     2.03     8.54     0  02:09        1.81
  YS02001915           JUNCTION     0.27     2.00     8.72     0  02:09        1.67
  YS02001918           JUNCTION     0.14     1.81     8.88     0  02:11        1.33
  YS02001920           JUNCTION     0.22     2.13     9.13     0  02:11        1.40
  YS02001923           JUNCTION     0.10     2.03     9.29     0  02:11        1.15
  YS02001926           JUNCTION     0.14     1.90     9.35     0  02:11        1.44
  YS02001929           JUNCTION     0.07     1.78     9.47     0  02:11        0.74
  YS02006553           JUNCTION     0.68     1.98     8.26     0  02:10        1.97
  YS02006556           JUNCTION     0.65     1.97     8.28     0  02:10        1.93
  YS02006558           JUNCTION     0.69     2.01     8.28     0  02:10        1.97
  YS02006561           JUNCTION     0.13     1.06     7.72     0  02:10        0.88
  YS02163301           JUNCTION     0.43     1.94     8.46     0  02:11        1.90
  YS02163601           JUNCTION     0.52     2.08     8.48     0  02:11        2.02
  YS02164001           JUNCTION     0.46     2.00     8.45     0  02:11        1.93
  CC-1                 OUTFALL      0.00     0.00     0.00     0  00:00        0.00
  CC-2                 OUTFALL      0.00     0.00     0.00     0  00:00        0.00
  JK-1                 OUTFALL      0.00     0.00     0.00     0  00:00        0.00
  JK-2                 OUTFALL      0.00     0.00     0.00     0  00:00        0.00
  WSC                  OUTFALL      0.19     0.30     0.97     0  03:10        0.30
  CC-storage           STORAGE      0.82     1.42     6.92     0  02:36        1.42
  JK-storage           STORAGE      2.94     4.24     5.04     0  02:13        4.20
  
  
  *******************
  Node Inflow Summary
  *******************
  
  -------------------------------------------------------------------------------------------------
                                  Maximum  Maximum                  Lateral       Total        Flow
                                  Lateral    Total  Time of Max      Inflow      Inflow     Balance
                                   Inflow   Inflow   Occurrence      Volume      Volume       Error
  Node                 Type           LPS      LPS  days hr:min    10^6 ltr    10^6 ltr     Percent
  -------------------------------------------------------------------------------------------------
  WS02003060           JUNCTION     16.53   551.13     0  03:08       0.476        5.41       0.047
  WS02003066           JUNCTION      0.00   534.15     0  03:08           0        4.94       0.030
  WS02003067           JUNCTION      0.00   534.04     0  03:08           0        4.94       0.088
  WS02003069           JUNCTION      0.32   551.00     0  03:08     0.00922        5.42       0.082
  WS02003072           JUNCTION      0.00   550.36     0  03:09           0        5.41       0.143
  WS02003073           JUNCTION      1.82   551.71     0  03:09      0.0524        5.46       0.122
  WS02004401           JUNCTION      0.00   540.26     0  02:57           0        5.04       0.204
  WS02004402           JUNCTION      0.00   537.47     0  02:34           0        5.03       0.207
  WS02004403           JUNCTION      0.00   538.12     0  02:36           0        5.02       0.201
  WS02004404           JUNCTION      0.16   550.94     0  03:06     0.00467        5.02       0.213
  WS02004405           JUNCTION      0.04   602.79     0  03:06      0.0011        5.01       0.178
  WS02004406           JUNCTION      0.00   541.31     0  03:05           0           5       0.415
  WS02004407           JUNCTION      0.00   537.29     0  03:06           0        4.98       0.025
  WS02004409           JUNCTION      0.00   536.97     0  03:06           0        4.98       0.059
  WS02004410           JUNCTION      0.00   536.10     0  03:06           0        4.97       0.094
  WS02004411           JUNCTION      0.00   535.47     0  03:07           0        4.97       0.119
  WS02004412           JUNCTION      0.00   534.84     0  03:07           0        4.96       0.158
  WS02004413           JUNCTION      0.00   534.70     0  03:07           0        4.96       0.277
  WS02006109           JUNCTION      1.23   574.60     0  02:56      0.0354        5.09       0.114
  WS02006110           JUNCTION      0.00   578.67     0  02:56           0        5.08       0.129
  WS02006111           JUNCTION      0.00   570.77     0  02:56           0        5.07       0.015
  WS02006112           JUNCTION      0.00   545.82     0  02:56           0        5.07       0.340
  WS02006113           JUNCTION      0.00   593.35     0  02:56           0        5.07       0.034
  WS02006115           JUNCTION      0.00   559.43     0  02:56           0        5.06       0.130
  WS02006116           JUNCTION      0.00   543.79     0  02:57           0        5.05       0.097
  WS02006228           JUNCTION      0.00   566.26     0  02:56           0        5.05       0.031
  WS02006229           JUNCTION      0.00   566.63     0  02:56           0        5.06       0.101
  WS02006230           JUNCTION     10.28   586.20     0  02:37       0.296        5.06       0.002
  WS02006231           JUNCTION      0.00   593.19     0  05:08           0        4.77       0.082
  WS02006232           JUNCTION      0.00   588.53     0  05:08           0        4.77       0.169
  WS02006234           JUNCTION      0.00   568.66     0  02:36           0        4.76      -0.214
  WS02006235           JUNCTION      0.00   563.02     0  02:36           0        4.82       0.183
  WS02006238           JUNCTION      0.00   424.15     0  02:40           0        4.02      -0.397
  WS02006239           JUNCTION      0.00   422.64     0  02:40           0        3.98      -0.284
  WS02006240           JUNCTION      0.00   420.10     0  02:40           0        3.96      -0.090
  WS02006242           JUNCTION      0.00   419.76     0  02:40           0        3.94      -0.037
  WS02006243           JUNCTION      0.00   418.82     0  02:40           0        3.92      -0.302
  WS02006245           JUNCTION      0.00   418.98     0  02:40           0        3.93       0.395
  WS02006247           JUNCTION      0.00   418.85     0  02:50           0        3.93      -0.009
  WS02006248           JUNCTION      0.00   420.44     0  02:50           0        3.93      -0.064
  WS02006249           JUNCTION      0.00   473.19     0  02:00           0         4.1       0.426
  WS02006251           JUNCTION      0.08   408.65     0  02:00     0.00222         4.1       0.011
  WS02006252           JUNCTION      0.00   400.00     0  00:00           0        4.09      -0.172
  WS02006256           JUNCTION      0.00   300.00     0  00:00           0        1.15      -0.946
  WSF200               JUNCTION      0.00   534.26     0  03:08           0        4.94       0.012
  YS02001580           JUNCTION      0.00    97.27     0  02:07           0     0.00413      -3.576
  YS02001583           JUNCTION      0.00   151.40     0  02:06           0      0.0152      -4.516
  YS02001586           JUNCTION    495.66   495.78     0  02:15        1.23        1.25       0.085
  YS02001590           JUNCTION      0.00   318.00     0  02:24           0        1.12      -0.034
  YS02001593           JUNCTION      0.00   318.07     0  02:24           0        1.12       0.011
  YS02001596           JUNCTION      0.00   317.93     0  02:24           0        1.12       0.002
  YS02001600           JUNCTION      0.00   317.95     0  02:17           0        1.12       0.017
  YS02001601           JUNCTION    899.52  1216.99     0  02:14        1.75        2.87       0.023
  YS02001602           JUNCTION      0.00   508.32     0  02:06           0        2.06       0.021
  YS02001605           JUNCTION      0.00   508.60     0  02:06           0        1.99       0.025
  YS02001607           JUNCTION      0.00   507.74     0  02:06           0        1.99       0.099
  YS02001610           JUNCTION      0.00   507.16     0  02:06           0        1.99       0.105
  YS02001613           JUNCTION      0.00   507.91     0  02:06           0        1.74       0.092
  YS02001616           JUNCTION      0.00   507.43     0  02:06           0        1.74       0.019
  YS02001619           JUNCTION    880.53   930.05     0  02:09        1.97         3.7      -0.005
  YS02001622           JUNCTION      0.00   929.58     0  02:09           0        3.69       0.002
  YS02001625           JUNCTION      0.00   981.53     0  02:15           0        3.71       0.236
  YS02001629           JUNCTION      0.00   929.42     0  02:09           0        3.24       0.015
  YS02001633           JUNCTION    675.77  1383.55     0  02:10        1.27        4.49       0.078
  YS02001641           JUNCTION      0.00  1383.07     0  02:10           0        4.47       0.063
  YS02001644           JUNCTION    604.98  1794.49     0  02:10         1.1        5.56       0.057
  YS02001647           JUNCTION      0.00  1793.89     0  02:10           0        5.52       0.006
  YS02001649           JUNCTION      0.00  2031.49     0  02:09           0        6.51       0.003
  YS02001652           JUNCTION      0.00   686.50     0  02:14           0        0.99      -0.138
  YS02001655           JUNCTION      0.15   685.22     0  02:14     0.00443        0.99       0.027
  YS02001658           JUNCTION      0.00   683.47     0  02:14           0       0.986      -0.034
  YS02001661           JUNCTION      0.00   786.62     0  02:13           0       0.986       0.018
  YS02001664           JUNCTION    589.38   589.38     0  02:14       0.986       0.986      -0.008
  YS02001745           JUNCTION    378.63   378.63     0  02:13       0.607       0.607       0.224
  YS02001748           JUNCTION      0.04   567.86     0  02:12      0.0013       0.607      -0.346
  YS02001751           JUNCTION      0.01   399.96     0  02:14    0.000317       0.612       0.102
  YS02001754           JUNCTION      0.26   400.59     0  02:14     0.00749       0.623      -0.159
  YS02001757           JUNCTION      0.00  3331.71     0  02:13           0        9.27       0.047
  YS02001759           JUNCTION    525.27  1272.51     0  02:13       0.835        2.13      -0.009
  YS02001762           JUNCTION      0.00   747.33     0  02:14           0         1.3      -0.009
  YS02001765           JUNCTION      0.00   746.34     0  02:14           0         1.3      -0.002
  YS02001767           JUNCTION      0.54   745.54     0  02:14      0.0154         1.3      -0.009
  YS02001770           JUNCTION    743.25   743.51     0  02:14        1.28        1.33      -0.018
  YS02001774           JUNCTION      0.00   334.95     0  02:11           0      0.0615       1.479
  YS02001779           JUNCTION      0.01   340.38     0  02:11    0.000144      0.0192      -1.534
  YS02001783           JUNCTION      0.00  1157.03     0  02:12           0        3.51       0.006
  YS02001784           JUNCTION      1.06  1158.17     0  02:13      0.0305        3.54       0.013
  YS02001786           JUNCTION      0.06  1158.11     0  02:12     0.00162        3.55       0.019
  YS02001788           JUNCTION      0.07  1158.23     0  02:12     0.00204        3.55       0.008
  YS02001790           JUNCTION      0.15  1168.52     0  02:12     0.00446        3.55       0.016
  YS02001791           JUNCTION      0.00  1284.32     0  02:16           0        3.55      -0.013
  YS02001793           JUNCTION      0.00  1237.86     0  02:16           0        3.55       0.005
  YS02001882           JUNCTION      0.00    40.09     0  02:08           0      0.0123       4.851
  YS02001884           JUNCTION      0.00    81.06     0  02:08           0      0.0478       5.400
  YS02001887           JUNCTION    573.52   573.54     0  02:13       0.883       0.916       0.479
  YS02001890           JUNCTION      0.00   574.69     0  02:13           0       0.876       0.571
  YS02001895           JUNCTION      0.00   514.26     0  02:15           0        0.86       0.178
  YS02001898           JUNCTION      0.00   514.23     0  02:15           0       0.859       0.028
  YS02001901           JUNCTION      0.00   514.23     0  02:15           0       0.861       0.377
  YS02001904           JUNCTION      0.00   514.21     0  02:15           0       0.865       0.304
  YS02001907           JUNCTION      0.00  1516.90     0  02:15           0         2.8       0.615
  YS02001910           JUNCTION      0.00  1012.91     0  02:12           0        1.94       0.358
  YS02001915           JUNCTION    655.55  1012.72     0  02:12        1.22        1.98       0.075
  YS02001918           JUNCTION      0.00   434.17     0  02:11           0       0.788       0.022
  YS02001920           JUNCTION      2.87   433.99     0  02:11      0.0827       0.772       0.133
  YS02001923           JUNCTION      0.04   400.11     0  02:11     0.00109       0.674      -0.067
  YS02001926           JUNCTION      0.05   464.59     0  02:10      0.0015       0.653       0.020
  YS02001929           JUNCTION    317.42   351.69     0  02:11       0.642       0.643      -0.038
  YS02006553           JUNCTION      0.00   792.25     0  02:25           0        2.27       0.514
  YS02006556           JUNCTION      0.00   791.66     0  02:25           0        2.28       0.348
  YS02006558           JUNCTION    760.78  1165.05     0  02:10        1.29        3.54       0.096
  YS02006561           JUNCTION      0.00  1164.97     0  02:10           0        3.51      -0.003
  YS02163301           JUNCTION      0.00   929.09     0  02:09           0        3.24       0.049
  YS02163601           JUNCTION      0.11  1383.61     0  02:10     0.00317        4.46       0.113
  YS02164001           JUNCTION      0.00  1383.35     0  02:10           0        4.46       0.049
  CC-1                 OUTFALL       0.00   683.00     0  00:00           0        3.04       0.000
  CC-2                 OUTFALL       0.00   683.00     0  00:00           0        2.95       0.000
  JK-1                 OUTFALL       0.00  1000.00     0  00:00           0        1.72       0.000
  JK-2                 OUTFALL       0.00  1000.00     0  00:00           0       0.658       0.000
  WSC                  OUTFALL       0.00   551.05     0  03:10           0        5.45       0.000
  CC-storage           STORAGE       0.00  3332.35     0  02:13           0        11.5      -0.246
  JK-storage           STORAGE       0.00  1249.23     0  02:18           0         3.7       0.092
  
  
  **********************
  Node Surcharge Summary
  **********************
  
  Surcharging occurs when water rises above the top of the highest conduit.
  ---------------------------------------------------------------------
                                               Max. Height   Min. Depth
                                   Hours       Above Crown    Below Rim
  Node                 Type      Surcharged         Meters       Meters
  ---------------------------------------------------------------------
  WS02004404           JUNCTION        0.01          0.013        2.767
  WS02006109           JUNCTION        1.29          0.463        1.357
  WS02006110           JUNCTION        0.48          0.518        1.332
  WS02006112           JUNCTION        0.61          0.084        1.596
  WS02006228           JUNCTION        1.27          0.477        1.723
  WS02006229           JUNCTION        1.30          0.564        1.886
  WS02006230           JUNCTION        0.49          0.537        1.033
  WS02006231           JUNCTION        0.60          1.126        0.404
  WS02006232           JUNCTION        1.41          1.480        0.000
  WS02006234           JUNCTION        0.94          1.240        0.000
  WS02006235           JUNCTION        1.28          1.154        0.136
  WS02006238           JUNCTION        1.34          1.229        0.201
  WS02006239           JUNCTION        1.26          1.290        0.000
  WS02006240           JUNCTION        1.25          1.220        0.170
  WS02006242           JUNCTION        1.36          0.820        0.000
  WS02006243           JUNCTION        1.25          0.770        0.000
  WS02006245           JUNCTION        1.24          0.782        0.068
  WS02006247           JUNCTION        1.26          0.693        0.067
  WS02006248           JUNCTION        1.21          0.380        0.000
  WS02006249           JUNCTION        1.22          0.390        0.000
  WS02006251           JUNCTION        0.65          0.770        0.410
  WS02006252           JUNCTION        1.97          1.100        0.000
  WS02006256           JUNCTION        6.04          2.050        0.000
  YS02001580           JUNCTION        0.44          0.450        0.000
  YS02001583           JUNCTION        0.45          0.500        0.000
  YS02001586           JUNCTION        0.56          0.510        0.000
  YS02001590           JUNCTION        0.64          0.736        0.014
  YS02001593           JUNCTION        0.64          0.690        0.150
  YS02001596           JUNCTION        0.75          0.940        0.130
  YS02001600           JUNCTION        0.90          1.188        0.002
  YS02001601           JUNCTION        1.28          1.440        0.000
  YS02001602           JUNCTION        1.17          1.270        0.000
  YS02001605           JUNCTION        1.11          1.180        0.000
  YS02001607           JUNCTION        0.60          0.649        0.031
  YS02001610           JUNCTION        0.62          0.680        0.000
  YS02001613           JUNCTION        0.59          0.675        0.025
  YS02001616           JUNCTION        0.55          0.610        0.000
  YS02001619           JUNCTION        0.54          0.595        0.015
  YS02001622           JUNCTION        0.53          0.567        0.053
  YS02001625           JUNCTION        0.71          0.780        0.000
  YS02001629           JUNCTION        0.48          0.470        0.000
  YS02001633           JUNCTION        0.72          1.030        0.030
  YS02001641           JUNCTION        0.63          0.966        0.134
  YS02001644           JUNCTION        0.60          0.920        0.000
  YS02001647           JUNCTION        0.39          0.823        0.077
  YS02001649           JUNCTION        0.48          1.023        0.027
  YS02001652           JUNCTION        0.31          1.108        0.022
  YS02001655           JUNCTION        0.19          1.200        0.000
  YS02001658           JUNCTION        0.07          1.300        0.000
  YS02001748           JUNCTION        0.01          1.190        0.000
  YS02001751           JUNCTION        0.12          1.167        0.033
  YS02001754           JUNCTION        0.22          1.040        0.110
  YS02001757           JUNCTION        0.51          1.084        0.126
  YS02001759           JUNCTION        0.43          1.090        0.120
  YS02001762           JUNCTION        0.39          1.147        0.003
  YS02001765           JUNCTION        0.36          1.100        0.000
  YS02001767           JUNCTION        0.34          1.030        0.000
  YS02001770           JUNCTION        0.32          0.920        0.000
  YS02001774           JUNCTION        0.38          1.050        0.000
  YS02001779           JUNCTION        0.23          0.680        0.000
  YS02001783           JUNCTION        0.42          0.542        1.058
  YS02001784           JUNCTION        0.40          0.359        1.131
  YS02001786           JUNCTION        0.29          0.131        1.299
  YS02001882           JUNCTION        0.37          0.793        0.037
  YS02001884           JUNCTION        0.38          0.800        0.070
  YS02001887           JUNCTION        0.41          0.822        0.128
  YS02001890           JUNCTION        0.42          0.760        0.000
  YS02001895           JUNCTION        0.36          0.577        0.173
  YS02001898           JUNCTION        0.35          0.551        0.189
  YS02001901           JUNCTION        0.40          0.681        0.189
  YS02001904           JUNCTION        0.39          0.642        0.208
  YS02001907           JUNCTION        0.64          0.950        0.000
  YS02001910           JUNCTION        0.45          1.030        0.070
  YS02001915           JUNCTION        0.37          1.000        0.000
  YS02001918           JUNCTION        0.28          0.810        0.000
  YS02001920           JUNCTION        0.30          1.125        0.015
  YS02001923           JUNCTION        0.01          0.820        0.000
  YS02001926           JUNCTION        0.01          0.900        0.000
  YS02001929           JUNCTION        0.01          0.780        0.000
  YS02006553           JUNCTION        0.66          0.977        0.213
  YS02006556           JUNCTION        0.54          0.928        0.422
  YS02006558           JUNCTION        0.53          0.914        0.486
  YS02006561           JUNCTION        0.25          0.260        0.890
  YS02163301           JUNCTION        0.70          0.938        0.092
  YS02163601           JUNCTION        0.75          1.080        0.000
  YS02164001           JUNCTION        0.64          0.996        0.104
  
  
  *********************
  Node Flooding Summary
  *********************
  
  Flooding refers to all water that overflows a node, whether it ponds or not.
  --------------------------------------------------------------------------
                                                             Total   Maximum
                                 Maximum   Time of Max       Flood    Ponded
                        Hours       Rate    Occurrence      Volume     Depth
  Node                 Flooded       LPS   days hr:min    10^6 ltr    Meters
  --------------------------------------------------------------------------
  WS02006232              0.01     18.52      0  05:08       0.000     0.000
  WS02006234              0.01     34.63      0  05:08       0.000     0.000
  WS02006239              0.01      1.08      0  02:56       0.000     0.000
  WS02006242              0.01      7.77      0  02:56       0.000     0.000
  WS02006243              0.01      1.02      0  02:56       0.000     0.000
  WS02006248              0.01     21.06      0  02:56       0.000     0.000
  WS02006249              0.63    106.71      0  02:56       0.153     0.000
  WS02006252              0.01    245.63      0  00:00       0.000     0.000
  WS02006256              1.06    293.19      0  00:00       0.343     0.000
  YS02001580              0.01     93.09      0  02:07       0.000     0.000
  YS02001583              0.01     18.21      0  02:07       0.000     0.000
  YS02001586              0.32    178.33      0  02:15       0.112     0.000
  YS02001601              0.50    819.14      0  02:14       0.803     0.000
  YS02001602              0.37     61.92      0  02:17       0.073     0.000
  YS02001605              0.01      1.79      0  02:06       0.000     0.000
  YS02001610              0.31    376.38      0  02:16       0.261     0.000
  YS02001616              0.01      5.39      0  02:06       0.000     0.000
  YS02001625              0.28    981.13      0  02:15       0.473     0.000
  YS02001629              0.05     83.24      0  02:13       0.009     0.000
  YS02001644              0.05    260.61      0  02:14       0.026     0.000
  YS02001655              0.01     89.06      0  02:12       0.000     0.000
  YS02001658              0.01    295.46      0  02:12       0.000     0.000
  YS02001748              0.01    156.72      0  02:12       0.000     0.000
  YS02001765              0.01     53.40      0  02:10       0.000     0.000
  YS02001767              0.01     26.92      0  02:11       0.000     0.000
  YS02001770              0.01     91.26      0  02:11       0.000     0.000
  YS02001774              0.01      1.26      0  02:11       0.000     0.000
  YS02001779              0.01    278.29      0  02:11       0.002     0.000
  YS02001890              0.08     70.12      0  02:13       0.010     0.000
  YS02001907              0.23   1089.96      0  02:15       0.519     0.000
  YS02001915              0.01    120.19      0  02:09       0.000     0.000
  YS02001918              0.01     90.03      0  02:11       0.001     0.000
  YS02001923              0.01    249.76      0  02:11       0.000     0.000
  YS02001926              0.01    198.41      0  02:11       0.000     0.000
  YS02001929              0.01    327.34      0  02:11       0.002     0.000
  YS02163601              0.01      3.76      0  02:11       0.000     0.000
  
  
  **********************
  Storage Volume Summary
  **********************
  
  ------------------------------------------------------------------------------------------------
                         Average    Avg   Evap  Exfil     Maximum    Max    Time of Max    Maximum
                          Volume   Pcnt   Pcnt   Pcnt      Volume   Pcnt     Occurrence    Outflow
  Storage Unit           1000 m³   Full   Loss   Loss     1000 m³   Full    days hr:min        LPS
  ------------------------------------------------------------------------------------------------
  CC-storage               2.281   35.6    0.0    0.0       3.947   61.6       0  02:36    1783.53
  JK-storage               0.148   50.6    0.0    0.0       0.213   73.0       0  02:13    2300.00
  
  
  ***********************
  Outfall Loading Summary
  ***********************
  
  -----------------------------------------------------------
                         Flow       Avg       Max       Total
                         Freq      Flow      Flow      Volume
  Outfall Node           Pcnt       LPS       LPS    10^6 ltr
  -----------------------------------------------------------
  CC-1                  15.67    683.00    683.00       3.039
  CC-2                  15.22    683.00    683.00       2.949
  JK-1                   7.36   1000.00   1000.00       1.722
  JK-2                   2.65   1000.00   1000.00       0.658
  WSC                   99.96    266.92    551.05       5.452
  -----------------------------------------------------------
  System                28.17   3632.92   3886.74      13.821
  
  
  ********************
  Link Flow Summary
  ********************
  
  -----------------------------------------------------------------------------
                                 Maximum  Time of Max   Maximum    Max/    Max/
                                  |Flow|   Occurrence   |Veloc|    Full    Full
  Link                 Type          LPS  days hr:min     m/sec    Flow   Depth
  -----------------------------------------------------------------------------
  1                    CONDUIT    551.05     0  03:10      2.82    0.19    0.30
  WS02003060WS02003069 CONDUIT    550.68     0  03:08      1.64    0.22    0.34
  WS02003066WSF200     CONDUIT    534.26     0  03:08      2.85    0.09    0.22
  WS02003067WS02003066 CONDUIT    534.15     0  03:08      1.20    0.17    0.41
  WS02003069WS02003072 CONDUIT    550.36     0  03:09      1.37    0.26    0.39
  WS02003072WS02003073 CONDUIT    549.89     0  03:09      1.43    1.19    0.37
  WS02004401WS02004402 CONDUIT    537.47     0  02:34      0.98    0.65    0.89
  WS02004402WS02004403 CONDUIT    538.12     0  02:36      0.97    0.77    0.91
  WS02004403WS02004404 CONDUIT    550.78     0  03:06      0.92    0.40    0.96
  WS02004404WS02004405 CONDUIT    602.76     0  03:06      1.08    5.91    0.98
  WS02004405WS02004406 CONDUIT    541.31     0  03:05      0.99    1.07    0.96
  WS02004406WS02004407 CONDUIT    537.29     0  03:06      1.04    0.24    0.63
  WS02004407WS02004409 CONDUIT    536.97     0  03:06      1.51    0.19    0.48
  WS02004409WS02004410 CONDUIT    536.10     0  03:06      0.98    0.69    0.67
  WS02004410WS02004411 CONDUIT    535.47     0  03:07      0.94    0.73    0.68
  WS02004411WS02004412 CONDUIT    534.84     0  03:07      0.92    0.76    0.69
  WS02004412WS02004413 CONDUIT    534.70     0  03:07      0.82    0.36    0.78
  WS02004413WS02003067 CONDUIT    534.04     0  03:08      1.11    0.23    0.59
  WS02006109WS02006110 CONDUIT    578.67     0  02:56      1.15    1.11    1.00
  WS02006110WS02006113 CONDUIT    593.35     0  02:56      1.42    0.54    0.79
  WS02006111WS02006112 CONDUIT    545.82     0  02:56      1.81    0.26    0.67
  WS02006112WS02006115 CONDUIT    559.43     0  02:56      0.82    0.33    0.88
  WS02006113WS02006111 CONDUIT    570.77     0  02:56      2.48    0.68    0.47
  WS02006115WS02006116 CONDUIT    543.79     0  02:57      1.04    0.70    0.78
  WS02006116WS02004401 CONDUIT    540.26     0  02:57      0.98    0.74    0.86
  WS02006228WS02006109 CONDUIT    573.37     0  02:56      1.14    2.51    1.00
  WS02006229WS02006228 CONDUIT    566.26     0  02:56      1.14    1.88    1.00
  WS02006230WS02006229 CONDUIT    566.63     0  02:56      1.47   12.61    1.00
  WS02006231WS02006230 CONDUIT    575.92     0  02:37      1.58    8.74    1.00
  WS02006232WS02006231 CONDUIT    593.19     0  05:08      1.62    1.24    1.00
  WS02006234WS02006232 CONDUIT    588.53     0  05:08      1.53    1.19    1.00
  WS02006235WS02006234 CONDUIT    568.66     0  02:36      1.48    6.00    1.00
  WS02006238WS02006235 CONDUIT    423.81     0  02:40      1.49    0.95    1.00
  WS02006239WS02006238 CONDUIT    424.15     0  02:40      1.10    1.36    1.00
  WS02006240WS02006239 CONDUIT    422.64     0  02:40      1.24    1.33    1.00
  WS02006242WS02006240 CONDUIT    420.10     0  02:40      1.13    1.67    1.00
  WS02006243WS02006242 CONDUIT    419.76     0  02:40      1.40    0.90    1.00
  WS02006245WS02006243 CONDUIT    418.82     0  02:40      1.45    1.24    1.00
  WS02006247WS02006245 CONDUIT    418.98     0  02:40      1.43    3.32    1.00
  WS02006248WS02006247 CONDUIT    418.85     0  02:50      1.47    0.91    1.00
  WS02006249WS02006248 CONDUIT    420.44     0  02:50      1.41    2.30    1.00
  WS02006251WS02006249 CONDUIT    473.19     0  02:00      1.99    1.36    1.00
  WS02006252WS02006251 CONDUIT    408.57     0  02:00     25.66    1.50    1.00
  WS02006256WS02006235 CONDUIT    288.91     0  00:00      4.23    3.06    1.00
  WSF200WS02003060     CONDUIT    534.60     0  03:08      2.06    0.12    0.28
  YS02001580YS02001583 CONDUIT     97.27     0  02:07      0.61    0.38    1.00
  YS02001583YS02001586 CONDUIT    151.40     0  02:06      0.63    0.23    1.00
  YS02001586YS02001590 CONDUIT    318.00     0  02:24      1.25    0.56    1.00
  YS02001590YS02001593 CONDUIT    318.07     0  02:24      1.12    2.00    1.00
  YS02001593YS02001596 CONDUIT    317.93     0  02:24      1.74    0.50    1.00
  YS02001596YS02001600 CONDUIT    317.95     0  02:17      1.23    0.62    1.00
  YS02001600YS02001601 CONDUIT    318.11     0  02:24      1.13    0.55    1.00
  YS02001601YS02001602 CONDUIT    508.32     0  02:06      1.80    1.84    1.00
  YS02001602YS02001605 CONDUIT    508.60     0  02:06      1.80   10.76    1.00
  YS02001605YS02001607 CONDUIT    507.74     0  02:06      1.80    2.78    1.00
  YS02001607YS02001610 CONDUIT    507.16     0  02:06      0.65    0.48    1.00
  YS02001610YS02001613 CONDUIT    507.91     0  02:06      0.65    0.59    1.00
  YS02001613YS02001616 CONDUIT    507.43     0  02:06      0.65    0.43    1.00
  YS02001616YS02001619 CONDUIT    500.94     0  02:06      0.66    0.87    1.00
  YS02001619YS02001622 CONDUIT    929.58     0  02:09      1.18    1.37    1.00
  YS02001622YS02001625 CONDUIT    929.52     0  02:09      1.18    0.50    1.00
  YS02001625YS02001629 CONDUIT    929.42     0  02:09      1.18    0.44    1.00
  YS02001629YS02163301 CONDUIT    929.09     0  02:09      1.18    1.14    1.00
  YS02001633YS02163601 CONDUIT   1383.50     0  02:10      1.76    1.45    1.00
  YS02001641YS02001644 CONDUIT   1382.43     0  02:10      1.76    4.47    1.00
  YS02001644YS02001647 CONDUIT   1793.89     0  02:10      2.29    1.05    1.00
  YS02001647YS02001649 CONDUIT   1800.51     0  02:10      2.34    0.95    1.00
  YS02001649YS02001757 CONDUIT   2011.97     0  02:10      2.56    1.22    1.00
  YS02001652YS02001649 CONDUIT    687.83     0  02:14      0.88    0.34    1.00
  YS02001655YS02001652 CONDUIT    686.50     0  02:14      1.28    0.33    1.00
  YS02001658YS02001655 CONDUIT    685.07     0  02:14      1.88    0.29    1.00
  YS02001661YS02001658 CONDUIT    683.47     0  02:14      2.32    0.27    0.99
  YS02001664YS02001661 CONDUIT    786.62     0  02:13      2.33    0.25    0.70
  YS02001745YS02001748 CONDUIT    567.82     0  02:12      2.18    0.22    0.80
  YS02001748YS02001751 CONDUIT    399.94     0  02:14      1.71    0.20    1.00
  YS02001751YS02001754 CONDUIT    400.33     0  02:14      1.42    0.19    1.00
  YS02001754YS02001757 CONDUIT    400.94     0  02:14      0.51    0.16    1.00
  YS02001757CaochengTiaoxuchi CONDUIT   3332.35     0  02:13      4.24    1.44    1.00
  YS02001759YS02001757 CONDUIT   1272.63     0  02:13      1.62    0.90    1.00
  YS02001762YS02001759 CONDUIT    747.41     0  02:13      0.95    0.86    1.00
  YS02001765YS02001762 CONDUIT    747.33     0  02:14      0.95    0.70    1.00
  YS02001767YS02001765 CONDUIT    746.34     0  02:14      0.95    0.94    1.00
  YS02001770YS02001767 CONDUIT    745.00     0  02:14      0.95    2.95    1.00
  YS02001774YS02001770 CONDUIT    334.95     0  02:11      0.43    0.21    1.00
  YS02001779YS02001774 CONDUIT    340.38     0  02:11      0.44    0.17    1.00
  YS02001783YS02001784 CONDUIT   1157.11     0  02:13      2.30    1.60    1.00
  YS02001784YS02001785 CONDUIT   1158.05     0  02:12      2.30    2.69    1.00
  YS02001786YS02001788 CONDUIT   1158.16     0  02:12      2.47    2.23    0.89
  YS02001788YS02001790 CONDUIT   1168.37     0  02:12      2.71    0.86    0.84
  YS02001790YS02001791 CONDUIT   1284.32     0  02:16      3.43    1.40    0.70
  YS02001791YS02001793 CONDUIT   1237.86     0  02:16      6.70    0.53    0.43
  YS02001793JiankangQianchi CONDUIT   1249.23     0  02:18      2.49    0.10    0.64
  YS02001882YS02001884 CONDUIT     40.09     0  02:08      0.11    0.05    1.00
  YS02001884YS02001887 CONDUIT     81.06     0  02:08      0.10    0.11    1.00
  YS02001887YS02001890 CONDUIT    574.69     0  02:13      0.73    0.98    1.00
  YS02001890YS02001895 CONDUIT    514.26     0  02:15      0.65    0.24    1.00
  YS02001895YS02001898 CONDUIT    514.23     0  02:15      0.65    0.89    1.00
  YS02001898YS02001901 CONDUIT    514.23     0  02:15      0.65    0.33    1.00
  YS02001901YS02001904 CONDUIT    514.21     0  02:15      0.65    0.80    1.00
  YS02001904YS02001907 CONDUIT    514.15     0  02:15      0.65    0.18    1.00
  YS02001907YS02006553 CONDUIT    792.25     0  02:25      0.88    0.93    1.00
  YS02001910YS02001907 CONDUIT   1012.71     0  02:12      1.29    0.57    1.00
  YS02001915YS02001910 CONDUIT   1012.91     0  02:12      1.29    0.50    1.00
  YS02001918YS02001915 CONDUIT    434.17     0  02:11      0.55    0.24    1.00
  YS02001920YS02001918 CONDUIT    434.17     0  02:11      0.65    0.42    1.00
  YS02001923YS02001920 CONDUIT    431.12     0  02:11      0.69    0.19    1.00
  YS02001926YS02001923 CONDUIT    392.13     0  02:11      0.96    0.56    1.00
  YS02001929YS02001926 CONDUIT    386.99     0  02:11      1.12    0.18    1.00
  YS02006553YS02006556 CONDUIT    791.66     0  02:25      1.01    0.68    1.00
  YS02006556YS02006558 CONDUIT    793.40     0  02:26      1.01    0.63    1.00
  YS02006558YS02006561 CONDUIT   1164.97     0  02:10      4.12    2.57    1.00
  YS02006561YS02001783 CONDUIT   1157.03     0  02:12      2.30    0.60    1.00
  YS02163301YS02001633 CONDUIT    928.79     0  02:09      1.18    0.87    1.00
  YS02163601YS02164001 CONDUIT   1383.35     0  02:10      1.76    1.23    1.00
  YS02164001YS02001641 CONDUIT   1383.07     0  02:10      1.76    1.89    1.00
  CC-R1                PUMP       683.00     0  00:00              1.00
  CC-R2                PUMP       683.00     0  00:00              1.00
  CC-S1                PUMP       200.00     0  00:00              1.00
  CC-S2                PUMP       200.00     0  00:00              1.00
  JK-R1                PUMP      1000.00     0  00:00              1.00
  JK-R2                PUMP      1000.00     0  00:00              1.00
  JK-S                 PUMP       300.00     0  00:00              1.00
  
  
  ***************************
  Flow Classification Summary
  ***************************
  
  -------------------------------------------------------------------------------------
                      Adjusted    ---------- Fraction of Time in Flow Class ---------- 
                       /Actual         Up    Down  Sub   Sup   Up    Down  Norm  Inlet 
  Conduit               Length    Dry  Dry   Dry   Crit  Crit  Crit  Crit  Ltd   Ctrl  
  -------------------------------------------------------------------------------------
  1                       1.00   0.00  0.00  0.00  0.00  1.00  0.00  0.00  0.39  0.00
  WS02003060WS02003069    1.00   0.00  0.00  0.00  0.98  0.02  0.00  0.00  0.70  0.00
  WS02003066WSF200        1.00   0.13  0.00  0.00  0.00  0.87  0.00  0.00  0.79  0.00
  WS02003067WS02003066    1.00   0.10  0.02  0.00  0.88  0.00  0.00  0.00  0.00  0.00
  WS02003069WS02003072    1.00   0.00  0.00  0.00  0.99  0.01  0.00  0.00  0.81  0.00
  WS02003072WS02003073    1.00   0.00  0.00  0.00  0.00  0.00  0.00  1.00  0.00  0.00
  WS02004401WS02004402    1.00   0.02  0.00  0.00  0.98  0.00  0.00  0.00  0.00  0.00
  WS02004402WS02004403    1.00   0.02  0.00  0.00  0.97  0.00  0.00  0.00  0.00  0.00
  WS02004403WS02004404    1.00   0.00  0.03  0.00  0.97  0.00  0.00  0.00  0.00  0.00
  WS02004404WS02004405    1.00   0.00  0.00  0.00  1.00  0.00  0.00  0.00  0.01  0.00
  WS02004405WS02004406    1.00   0.00  0.00  0.00  1.00  0.00  0.00  0.00  0.00  0.00
  WS02004406WS02004407    1.00   0.00  0.05  0.00  0.95  0.00  0.00  0.00  0.00  0.00
  WS02004407WS02004409    1.00   0.05  0.00  0.00  0.94  0.01  0.00  0.00  0.94  0.00
  WS02004409WS02004410    1.00   0.05  0.00  0.00  0.95  0.00  0.00  0.00  0.03  0.00
  WS02004410WS02004411    1.00   0.05  0.00  0.00  0.95  0.00  0.00  0.00  0.01  0.00
  WS02004411WS02004412    1.00   0.05  0.00  0.00  0.95  0.00  0.00  0.00  0.00  0.00
  WS02004412WS02004413    1.00   0.05  0.00  0.00  0.94  0.00  0.00  0.00  0.01  0.00
  WS02004413WS02003067    1.00   0.06  0.04  0.00  0.00  0.00  0.90  0.00  0.00  0.00
  WS02006109WS02006110    1.00   0.00  0.01  0.00  0.98  0.00  0.01  0.00  0.00  0.00
  WS02006110WS02006113    1.00   0.01  0.01  0.00  0.98  0.00  0.00  0.00  0.00  0.00
  WS02006111WS02006112    1.00   0.02  0.00  0.00  0.98  0.00  0.00  0.00  0.98  0.00
  WS02006112WS02006115    1.00   0.02  0.00  0.00  0.97  0.00  0.00  0.00  0.00  0.00
  WS02006113WS02006111    1.00   0.02  0.00  0.00  0.00  0.98  0.00  0.00  0.16  0.00
  WS02006115WS02006116    1.00   0.02  0.00  0.00  0.97  0.00  0.00  0.01  0.00  0.00
  WS02006116WS02004401    1.00   0.02  0.00  0.00  0.98  0.00  0.00  0.00  0.00  0.00
  WS02006228WS02006109    1.00   0.00  0.00  0.00  1.00  0.00  0.00  0.00  0.01  0.00
  WS02006229WS02006228    1.00   0.00  0.00  0.00  0.99  0.00  0.00  0.01  0.00  0.00
  WS02006230WS02006229    1.00   0.00  0.00  0.00  0.99  0.00  0.00  0.01  0.01  0.00
  WS02006231WS02006230    1.00   0.00  0.00  0.00  0.21  0.00  0.78  0.00  0.00  0.00
  WS02006232WS02006231    1.00   0.00  0.00  0.00  0.99  0.00  0.01  0.00  0.00  0.00
  WS02006234WS02006232    1.00   0.00  0.00  0.00  1.00  0.00  0.00  0.00  0.07  0.00
  WS02006235WS02006234    1.00   0.00  0.00  0.00  0.86  0.00  0.14  0.00  0.00  0.00
  WS02006238WS02006235    1.00   0.00  0.00  0.00  1.00  0.00  0.00  0.00  0.00  0.00
  WS02006239WS02006238    1.00   0.00  0.00  0.00  1.00  0.00  0.00  0.00  0.25  0.00
  WS02006240WS02006239    1.00   0.00  0.00  0.00  0.68  0.00  0.00  0.32  0.03  0.00
  WS02006242WS02006240    1.00   0.00  0.00  0.00  0.99  0.00  0.01  0.00  0.00  0.00
  WS02006243WS02006242    1.00   0.00  0.00  0.00  0.99  0.00  0.00  0.01  0.45  0.00
  WS02006245WS02006243    1.00   0.00  0.00  0.00  0.70  0.00  0.00  0.30  0.02  0.00
  WS02006247WS02006245    1.00   0.00  0.00  0.00  0.97  0.00  0.00  0.03  0.00  0.00
  WS02006248WS02006247    1.00   0.00  0.00  0.00  0.99  0.00  0.00  0.01  0.21  0.00
  WS02006249WS02006248    1.00   0.00  0.00  0.00  0.55  0.00  0.45  0.00  0.00  0.00
  WS02006251WS02006249    1.00   0.00  0.00  0.00  1.00  0.00  0.00  0.00  0.47  0.00
  WS02006252WS02006251    1.00   0.00  0.52  0.00  0.08  0.00  0.40  0.00  0.00  0.00
  WS02006256WS02006235    1.00   0.00  0.00  0.00  0.99  0.01  0.00  0.00  0.00  0.00
  WSF200WS02003060        1.00   0.00  0.13  0.00  0.28  0.60  0.00  0.00  0.46  0.00
  YS02001580YS02001583    1.00   0.26  0.57  0.00  0.17  0.00  0.00  0.00  0.66  0.00
  YS02001583YS02001586    1.00   0.42  0.35  0.00  0.22  0.00  0.00  0.00  0.66  0.00
  YS02001586YS02001590    1.00   0.13  0.00  0.00  0.42  0.04  0.00  0.41  0.38  0.00
  YS02001590YS02001593    1.00   0.13  0.01  0.00  0.09  0.00  0.77  0.00  0.00  0.00
  YS02001593YS02001596    1.00   0.14  0.00  0.00  0.11  0.01  0.00  0.74  0.02  0.00
  YS02001596YS02001600    1.00   0.14  0.00  0.00  0.18  0.01  0.00  0.67  0.05  0.00
  YS02001600YS02001601    1.00   0.13  0.01  0.00  0.86  0.00  0.00  0.00  0.61  0.00
  YS02001601YS02001602    1.00   0.13  0.01  0.00  0.86  0.00  0.00  0.00  0.00  0.00
  YS02001602YS02001605    1.00   0.14  0.00  0.00  0.86  0.00  0.00  0.00  0.00  0.00
  YS02001605YS02001607    1.00   0.14  0.00  0.00  0.86  0.00  0.00  0.00  0.00  0.00
  YS02001607YS02001610    1.00   0.13  0.01  0.00  0.86  0.00  0.00  0.00  0.02  0.00
  YS02001610YS02001613    1.00   0.13  0.00  0.00  0.87  0.00  0.00  0.00  0.01  0.00
  YS02001613YS02001616    1.00   0.13  0.00  0.00  0.87  0.00  0.00  0.00  0.01  0.00
  YS02001616YS02001619    1.00   0.13  0.00  0.00  0.87  0.00  0.00  0.00  0.00  0.00
  YS02001619YS02001622    1.00   0.13  0.00  0.00  0.87  0.00  0.00  0.00  0.29  0.00
  YS02001622YS02001625    1.00   0.13  0.00  0.00  0.87  0.00  0.00  0.00  0.05  0.00
  YS02001625YS02001629    1.00   0.13  0.05  0.00  0.14  0.00  0.68  0.00  0.00  0.00
  YS02001629YS02163301    1.00   0.16  0.01  0.00  0.83  0.00  0.00  0.00  0.00  0.00
  YS02001633YS02163601    1.00   0.00  0.01  0.00  0.99  0.00  0.00  0.00  0.15  0.00
  YS02001641YS02001644    1.00   0.00  0.01  0.00  0.99  0.00  0.00  0.00  0.00  0.00
  YS02001644YS02001647    1.00   0.00  0.18  0.00  0.82  0.00  0.00  0.00  0.00  0.00
  YS02001647YS02001649    1.00   0.00  0.18  0.00  0.50  0.33  0.00  0.00  0.56  0.00
  YS02001649YS02001757    1.00   0.00  0.00  0.00  0.74  0.26  0.00  0.00  0.45  0.00
  YS02001652YS02001649    1.00   0.00  0.00  0.00  0.96  0.04  0.00  0.00  0.77  0.00
  YS02001655YS02001652    1.00   0.00  0.00  0.00  0.16  0.02  0.00  0.83  0.06  0.00
  YS02001658YS02001655    1.00   0.00  0.14  0.00  0.62  0.23  0.00  0.00  0.73  0.00
  YS02001661YS02001658    1.00   0.14  0.00  0.00  0.46  0.40  0.00  0.00  0.73  0.00
  YS02001664YS02001661    1.00   0.13  0.00  0.00  0.76  0.12  0.00  0.00  0.86  0.00
  YS02001745YS02001748    1.00   0.00  0.00  0.00  0.05  0.01  0.00  0.94  0.04  0.00
  YS02001748YS02001751    1.00   0.00  0.00  0.00  0.79  0.21  0.00  0.00  0.79  0.00
  YS02001751YS02001754    1.00   0.00  0.00  0.00  0.12  0.00  0.00  0.88  0.03  0.00
  YS02001754YS02001757    1.00   0.00  0.00  0.00  1.00  0.00  0.00  0.00  0.87  0.00
  YS02001757CaochengTiaoxuchi    1.00   0.00  0.00  0.00  0.96  0.04  0.00  0.00  0.73  0.00
  YS02001759YS02001757    1.00   0.00  0.00  0.00  1.00  0.00  0.00  0.00  0.56  0.00
  YS02001762YS02001759    1.00   0.00  0.00  0.00  1.00  0.00  0.00  0.00  0.06  0.00
  YS02001765YS02001762    1.00   0.00  0.00  0.00  1.00  0.00  0.00  0.00  0.75  0.00
  YS02001767YS02001765    1.00   0.00  0.00  0.00  1.00  0.00  0.00  0.00  0.00  0.00
  YS02001770YS02001767    1.00   0.00  0.00  0.00  1.00  0.00  0.00  0.00  0.00  0.00
  YS02001774YS02001770    1.00   0.00  0.13  0.00  0.70  0.00  0.17  0.00  0.03  0.00
  YS02001779YS02001774    1.00   0.00  0.00  0.00  1.00  0.00  0.00  0.00  0.80  0.00
  YS02001783YS02001784    1.00   0.00  0.19  0.00  0.81  0.00  0.00  0.00  0.56  0.00
  YS02001784YS02001785    1.00   0.00  0.00  0.00  1.00  0.00  0.00  0.00  0.17  0.00
  YS02001786YS02001788    1.00   0.00  0.00  0.00  0.79  0.21  0.00  0.00  0.00  0.00
  YS02001788YS02001790    1.00   0.00  0.00  0.00  0.21  0.79  0.00  0.00  0.81  0.00
  YS02001790YS02001791    1.00   0.00  0.00  0.00  0.01  0.99  0.00  0.00  0.16  0.00
  YS02001791YS02001793    1.00   0.00  0.00  0.00  0.00  1.00  0.00  0.00  0.01  0.00
  YS02001793JiankangQianchi    1.00   0.00  0.00  0.00  0.98  0.02  0.00  0.00  0.97  0.00
  YS02001882YS02001884    1.00   0.15  0.01  0.00  0.84  0.00  0.00  0.00  0.00  0.00
  YS02001884YS02001887    1.00   0.06  0.05  0.00  0.89  0.00  0.00  0.00  0.00  0.00
  YS02001887YS02001890    1.00   0.00  0.00  0.00  0.97  0.00  0.03  0.00  0.00  0.00
  YS02001890YS02001895    1.00   0.00  0.17  0.00  0.83  0.00  0.00  0.00  0.00  0.00
  YS02001895YS02001898    1.00   0.17  0.00  0.00  0.81  0.00  0.02  0.00  0.00  0.00
  YS02001898YS02001901    1.00   0.17  0.00  0.00  0.83  0.00  0.00  0.00  0.01  0.00
  YS02001901YS02001904    1.00   0.17  0.00  0.00  0.83  0.00  0.00  0.00  0.00  0.00
  YS02001904YS02001907    1.00   0.00  0.17  0.00  0.83  0.00  0.00  0.00  0.00  0.00
  YS02001907YS02006553    1.00   0.00  0.02  0.00  0.98  0.00  0.00  0.00  0.00  0.00
  YS02001910YS02001907    1.00   0.00  0.00  0.00  0.97  0.00  0.00  0.03  0.12  0.00
  YS02001915YS02001910    1.00   0.00  0.00  0.00  0.97  0.03  0.00  0.00  0.16  0.00
  YS02001918YS02001915    1.00   0.00  0.01  0.00  0.98  0.02  0.00  0.00  0.76  0.00
  YS02001920YS02001918    1.00   0.00  0.01  0.00  0.99  0.00  0.00  0.00  0.00  0.00
  YS02001923YS02001920    1.00   0.00  0.00  0.00  1.00  0.00  0.00  0.00  0.94  0.00
  YS02001926YS02001923    1.00   0.00  0.07  0.00  0.05  0.00  0.88  0.00  0.00  0.00
  YS02001929YS02001926    1.00   0.00  0.13  0.00  0.87  0.00  0.00  0.00  0.83  0.00
  YS02006553YS02006556    1.00   0.01  0.00  0.00  0.99  0.00  0.00  0.00  0.03  0.00
  YS02006556YS02006558    1.00   0.00  0.00  0.00  1.00  0.00  0.00  0.00  0.00  0.00
  YS02006558YS02006561    1.00   0.18  0.00  0.00  0.04  0.77  0.00  0.00  0.20  0.00
  YS02006561YS02001783    1.00   0.18  0.00  0.00  0.07  0.74  0.00  0.00  0.70  0.00
  YS02163301YS02001633    1.00   0.00  0.16  0.00  0.84  0.00  0.00  0.00  0.00  0.00
  YS02163601YS02164001    1.00   0.00  0.08  0.00  0.92  0.00  0.00  0.00  0.00  0.00
  YS02164001YS02001641    1.00   0.01  0.07  0.00  0.92  0.00  0.00  0.00  0.06  0.00
  
  
  *************************
  Conduit Surcharge Summary
  *************************
  
  ----------------------------------------------------------------------------
                                                           Hours        Hours 
                         --------- Hours Full --------   Above Full   Capacity
  Conduit                Both Ends  Upstream  Dnstream   Normal Flow   Limited
  ----------------------------------------------------------------------------
  WS02003072WS02003073        0.01      0.01      0.01      0.92         0.01
  WS02004403WS02004404        0.01      0.01      0.01      0.01         0.01
  WS02004404WS02004405        0.01      0.01      0.01      4.03         0.01
  WS02004405WS02004406        0.01      0.01      0.01      0.41         0.01
  WS02006109WS02006110        0.48      0.48      1.40      0.58         0.01
  WS02006110WS02006113        0.01      0.01      1.35      0.01         0.01
  WS02006111WS02006112        0.01      0.01      2.32      0.01         0.01
  WS02006112WS02006115        0.01      0.01      0.61      0.01         0.01
  WS02006228WS02006109        1.29      1.39      1.29      2.75         1.28
  WS02006229WS02006228        1.27      1.30      1.27      1.96         1.26
  WS02006230WS02006229        1.56      1.85      1.56      4.65         1.56
  WS02006231WS02006230        0.49      0.49      0.64      4.28         0.01
  WS02006232WS02006231        0.60      0.60      1.41      0.70         0.01
  WS02006234WS02006232        1.25      1.26      1.41      0.66         0.67
  WS02006235WS02006234        0.93      0.94      1.28      4.08         0.01
  WS02006238WS02006235        1.31      1.31      1.42      0.01         0.01
  WS02006239WS02006238        1.33      1.37      1.34      1.65         1.16
  WS02006240WS02006239        1.24      1.27      1.26      1.62         1.07
  WS02006242WS02006240        1.25      1.25      1.47      2.05         0.01
  WS02006243WS02006242        1.26      1.26      1.36      0.01         0.04
  WS02006245WS02006243        1.24      1.25      1.25      1.18         0.72
  WS02006247WS02006245        1.24      1.27      1.24      3.66         1.22
  WS02006248WS02006247        1.22      1.22      1.26      0.01         0.03
  WS02006249WS02006248        1.21      1.21      1.22      3.59         0.01
  WS02006251WS02006249        1.22      1.23      1.22      1.86         1.14
  WS02006252WS02006251        1.96      1.96      1.97      1.96         0.01
  WS02006256WS02006235        4.11      4.15      6.01      1.07         0.01
  YS02001580YS02001583        0.44      0.44      0.49      0.01         0.01
  YS02001583YS02001586        0.45      0.45      0.56      0.01         0.01
  YS02001586YS02001590        0.57      0.57      0.64      0.01         0.01
  YS02001590YS02001593        0.64      0.64      0.66      0.67         0.01
  YS02001593YS02001596        0.65      0.65      0.75      0.01         0.01
  YS02001596YS02001600        0.80      0.80      0.90      0.01         0.01
  YS02001600YS02001601        0.97      0.97      1.28      0.01         0.01
  YS02001601YS02001602        1.17      1.17      1.32      0.92         0.01
  YS02001602YS02001605        1.11      1.11      1.17      2.18         0.01
  YS02001605YS02001607        1.06      1.11      1.06      1.25         1.06
  YS02001607YS02001610        0.60      0.60      0.62      0.01         0.01
  YS02001610YS02001613        0.59      0.59      0.62      0.01         0.01
  YS02001613YS02001616        0.55      0.55      0.59      0.01         0.01
  YS02001616YS02001619        0.54      0.54      0.55      0.01         0.01
  YS02001619YS02001622        0.53      0.54      0.53      0.68         0.51
  YS02001622YS02001625        0.53      0.53      0.71      0.01         0.01
  YS02001625YS02001629        0.48      0.48      0.71      0.01         0.01
  YS02001629YS02163301        0.69      0.69      0.70      0.26         0.24
  YS02001633YS02163601        0.72      0.72      0.75      0.40         0.39
  YS02001641YS02001644        0.60      0.64      0.60      1.37         0.60
  YS02001644YS02001647        0.39      0.39      0.60      0.04         0.01
  YS02001647YS02001649        0.39      0.39      0.48      0.01         0.01
  YS02001649YS02001757        0.48      0.48      0.51      0.33         0.25
  YS02001652YS02001649        0.33      0.33      0.48      0.01         0.01
  YS02001655YS02001652        0.19      0.19      0.31      0.01         0.01
  YS02001658YS02001655        0.07      0.07      0.19      0.01         0.01
  YS02001661YS02001658        0.01      0.01      0.07      0.01         0.01
  YS02001664YS02001661        0.01      0.01      0.01      0.01         0.01
  YS02001745YS02001748        0.01      0.01      0.01      0.01         0.01
  YS02001748YS02001751        0.04      0.04      0.12      0.01         0.01
  YS02001751YS02001754        0.12      0.12      0.22      0.01         0.01
  YS02001754YS02001757        0.25      0.25      0.51      0.01         0.01
  YS02001757CaochengTiaoxuchi        0.47      0.51      0.95      0.31         0.23
  YS02001759YS02001757        0.43      0.43      0.51      0.01         0.01
  YS02001762YS02001759        0.39      0.39      0.43      0.01         0.02
  YS02001765YS02001762        0.36      0.36      0.39      0.01         0.01
  YS02001767YS02001765        0.33      0.33      0.36      0.01         0.02
  YS02001770YS02001767        0.33      0.34      0.33      0.42         0.26
  YS02001774YS02001770        0.32      0.32      0.38      0.01         0.01
  YS02001779YS02001774        0.23      0.23      0.38      0.01         0.01
  YS02001783YS02001784        0.40      0.42      0.40      0.57         0.40
  YS02001784YS02001785        0.29      0.40      0.29      0.80         0.29
  YS02001786YS02001788        0.01      0.29      0.01      0.67         0.01
  YS02001790YS02001791        0.01      0.01      0.01      0.38         0.01
  YS02001793JiankangQianchi        0.01      0.01      7.46      0.01         0.01
  YS02001882YS02001884        0.37      0.37      0.38      0.01         0.01
  YS02001884YS02001887        0.40      0.40      0.41      0.01         0.01
  YS02001887YS02001890        0.42      0.42      0.43      0.01         0.01
  YS02001890YS02001895        0.36      0.36      0.45      0.01         0.01
  YS02001895YS02001898        0.35      0.35      0.36      0.01         0.01
  YS02001898YS02001901        0.36      0.36      0.40      0.01         0.01
  YS02001901YS02001904        0.39      0.39      0.40      0.01         0.01
  YS02001904YS02001907        0.39      0.39      0.66      0.01         0.01
  YS02001907YS02006553        0.80      0.80      0.88      0.01         0.01
  YS02001910YS02001907        0.45      0.45      0.64      0.01         0.01
  YS02001915YS02001910        0.37      0.37      0.45      0.01         0.01
  YS02001918YS02001915        0.28      0.28      0.37      0.01         0.01
  YS02001920YS02001918        0.28      0.28      0.30      0.01         0.01
  YS02001923YS02001920        0.24      0.24      0.30      0.01         0.01
  YS02001926YS02001923        0.01      0.01      0.01      0.01         0.01
  YS02001929YS02001926        0.01      0.01      0.01      0.01         0.01
  YS02006553YS02006556        0.54      0.54      0.66      0.01         0.01
  YS02006556YS02006558        0.59      0.59      0.67      0.01         0.01
  YS02006558YS02006561        0.32      0.53      0.32      0.75         0.32
  YS02006561YS02001783        0.25      0.25      0.42      0.01         0.01
  YS02163301YS02001633        0.70      0.70      0.74      0.01         0.01
  YS02163601YS02164001        0.64      0.64      0.75      0.11         0.01
  YS02164001YS02001641        0.64      0.64      0.64      0.69         0.55
  
  
  ***************
  Pumping Summary
  ***************
  
  ---------------------------------------------------------------------------------------------------------
                                                  Min       Avg       Max     Total     Power    % Time Off
                        Percent   Number of      Flow      Flow      Flow    Volume     Usage    Pump Curve
  Pump                 Utilized   Start-Ups       LPS       LPS       LPS  10^6 ltr     Kw-hr    Low   High
  ---------------------------------------------------------------------------------------------------------
  CC-R1                   15.46           6      0.00    683.00    683.00     3.041     54.90    0.0   26.3
  CC-R2                   14.98           5      0.00    683.00    683.00     2.947     53.25    0.0   24.1
  CC-S1                   41.77          13      0.00    200.00    200.00     2.406     14.93    0.0    0.0
  CC-S2                   29.25          13      0.00    200.00    200.00     1.685     10.92    0.0    0.0
  JK-R1                    5.99          12      0.00   1000.00   1000.00     1.724     17.66    0.0    0.0
  JK-R2                    2.29           8      0.00   1000.00   1000.00     0.659      6.40    0.0    0.0
  JK-S                    13.28          17      0.00    300.00    300.00     1.147     18.15    0.0    0.0
  

  Analysis begun on:  Wed Jan 15 10:35:58 2025
  Analysis ended on:  Wed Jan 15 10:36:00 2025
  Total elapsed time: 00:00:02