
  EPA STORM WATER MANAGEMENT MODEL - VERSION 5.2 (Build 5.2.4)
  PYSWMM TOOLKIT API - VERSION v1.0 (2023-11-27)
  ------------------------------------------------------------

  WARNING 04: minimum elevation drop used for Conduit WS02004404WS02004405
  WARNING 03: negative offset ignored for Link YS02001904YS02001907
  
  ****************
  Analysis Options
  ****************
  Flow Units ............... LPS
  Process Models:
    Rainfall/Runoff ........ YES
    RDII ................... NO
    Snowmelt ............... NO
    Groundwater ............ NO
    Flow Routing ........... YES
    Ponding Allowed ........ NO
    Water Quality .......... NO
  Infiltration Method ...... HORTON
  Flow Routing Method ...... DYNWAVE
  Surcharge Method ......... EXTRAN
  Starting Date ............ 08/28/2015 08:00:00
  Ending Date .............. 08/28/2015 16:00:00
  Antecedent Dry Days ...... 8.0
  Report Time Step ......... 00:01:00
  Wet Time Step ............ 00:01:00
  Dry Time Step ............ 00:01:00
  Routing Time Step ........ 30.00 sec
  Variable Time Step ....... YES
  Maximum Trials ........... 8
  Number of Threads ........ 4
  Head Tolerance ........... 0.001500 m
  
  
  **************************        Volume         Depth
  Runoff Quantity Continuity     hectare-m            mm
  **************************     ---------       -------
  Total Precipitation ......         2.620        78.985
  Evaporation Loss .........         0.000         0.000
  Infiltration Loss ........         0.102         3.081
  Surface Runoff ...........         2.485        74.926
  Final Storage ............         0.033         0.996
  Continuity Error (%) .....        -0.022
  
  
  **************************        Volume        Volume
  Flow Routing Continuity        hectare-m      10^6 ltr
  **************************     ---------     ---------
  Dry Weather Inflow .......         0.025         0.251
  Wet Weather Inflow .......         2.486        24.858
  Groundwater Inflow .......         0.000         0.000
  RDII Inflow ..............         0.000         0.000
  External Inflow ..........         0.083         0.834
  External Outflow .........         1.714        17.143
  Flooding Loss ............         0.930         9.296
  Evaporation Loss .........         0.000         0.000
  Exfiltration Loss ........         0.000         0.000
  Initial Stored Volume ....         0.243         2.431
  Final Stored Volume ......         0.199         1.986
  Continuity Error (%) .....        -0.180
  
  
  *************************
  Highest Continuity Errors
  *************************
  Node YS02001884 (4.89%)
  Node YS02001583 (-4.72%)
  
  
  ***************************
  Time-Step Critical Elements
  ***************************
  Link WS02006252WS02006251 (55.25%)
  Link WS02006238WS02006235 (12.46%)
  Link WS02004404WS02004405 (9.97%)
  Link WS02006235WS02006234 (7.06%)
  Link YS02001791YS02001793 (5.09%)
  
  
  ********************************
  Highest Flow Instability Indexes
  ********************************
  Link WS02006113WS02006111 (55)
  Link WS02006111WS02006112 (23)
  Link WS02004404WS02004405 (19)
  Link WS02004405WS02004406 (16)
  Link WS02004403WS02004404 (16)
  
  
  *********************************
  Most Frequent Nonconverging Nodes
  *********************************
  Node CC-1 (9.90%)
  Node CC-2 (9.90%)
  Node JK-1 (9.90%)
  Node JK-2 (9.90%)
  Node WSC (9.90%)
  
  
  *************************
  Routing Time Step Summary
  *************************
  Minimum Time Step           :     0.01 sec
  Average Time Step           :     1.69 sec
  Maximum Time Step           :     7.04 sec
  % of Time in Steady State   :     0.00
  Average Iterations per Step :     2.91
  % of Steps Not Converging   :     9.90
  Time Step Frequencies       :
     30.000 - 13.228 sec      :     0.00 %
     13.228 -  5.833 sec      :     6.56 %
      5.833 -  2.572 sec      :    15.28 %
      2.572 -  1.134 sec      :    17.72 %
      1.134 -  0.500 sec      :    60.44 %
  
  
  ***************************
  Subcatchment Runoff Summary
  ***************************
  
  ------------------------------------------------------------------------------------------------------------------------------
                            Total      Total      Total      Total     Imperv       Perv      Total       Total     Peak  Runoff
                           Precip      Runon       Evap      Infil     Runoff     Runoff     Runoff      Runoff   Runoff   Coeff
  Subcatchment                 mm         mm         mm         mm         mm         mm         mm    10^6 ltr      LPS
  ------------------------------------------------------------------------------------------------------------------------------
  sub60                     78.98       0.00       0.00       1.83      68.31       7.65      75.96        1.00   719.67   0.962
  sub61                     78.98       0.00       0.00       2.66      64.43      10.77      75.20        1.38  1001.39   0.952
  sub62                     78.98       0.00       0.00       1.22      71.38       5.10      76.48        2.10  1404.40   0.968
  sub63                     78.98       0.00       0.00       4.93      55.11      17.98      73.09        1.66  1140.56   0.925
  sub64                     78.98       0.00       0.00       2.49      65.93       9.36      75.30        1.81  1163.72   0.953
  sub65                     78.98       0.00       0.00       2.15      67.47       8.12      75.58        2.08  1305.14   0.957
  sub66                     78.98       0.00       0.00       6.16      55.00      16.75      71.75        3.35  1753.81   0.908
  sub67                     78.98       0.00       0.00       1.17      71.43       5.15      76.58        1.42  1074.80   0.970
  sub68                     78.98       0.00       0.00       2.20      66.74       8.86      75.60        2.08  1444.57   0.957
  sub69                     78.98       0.00       0.00       1.98      67.03       9.87      76.90        2.85  1734.96   0.974
  sub70                     78.98       0.00       0.00       6.70      51.97      20.16      72.12        2.08   987.05   0.913
  sub71                     78.98       0.00       0.00       1.25      71.34       5.07      76.41        2.00  1257.07   0.967
  sub72                     78.98       0.00       0.00       1.12      72.05       4.41      76.47        1.05   614.23   0.968
  
  
  ******************
  Node Depth Summary
  ******************
  
  ---------------------------------------------------------------------------------
                                 Average  Maximum  Maximum  Time of Max    Reported
                                   Depth    Depth      HGL   Occurrence   Max Depth
  Node                 Type       Meters   Meters   Meters  days hr:min      Meters
  ---------------------------------------------------------------------------------
  WS02003060           JUNCTION     0.25     0.38     5.31     0  02:41        0.38
  WS02003066           JUNCTION     0.21     0.29     5.85     0  02:43        0.29
  WS02003067           JUNCTION     0.53     0.70     6.02     0  02:43        0.70
  WS02003069           JUNCTION     0.28     0.42     5.01     0  02:44        0.42
  WS02003072           JUNCTION     0.34     0.49     4.87     0  02:44        0.49
  WS02003073           JUNCTION     0.20     0.29     4.36     0  02:45        0.29
  WS02004401           JUNCTION     0.63     0.87     6.87     0  02:40        0.87
  WS02004402           JUNCTION     0.66     0.89     6.85     0  02:26        0.89
  WS02004403           JUNCTION     0.68     0.91     6.84     0  02:26        0.91
  WS02004404           JUNCTION     0.76     1.00     6.85     0  02:46        0.99
  WS02004405           JUNCTION     0.74     0.96     6.81     0  02:26        0.96
  WS02004406           JUNCTION     0.75     0.95     6.78     0  02:40        0.95
  WS02004407           JUNCTION     0.19     0.29     6.61     0  02:41        0.29
  WS02004409           JUNCTION     0.42     0.66     6.43     0  02:41        0.66
  WS02004410           JUNCTION     0.44     0.67     6.39     0  02:42        0.67
  WS02004411           JUNCTION     0.46     0.68     6.36     0  02:42        0.68
  WS02004412           JUNCTION     0.48     0.69     6.33     0  02:42        0.69
  WS02004413           JUNCTION     0.64     0.85     6.32     0  02:43        0.85
  WS02006109           JUNCTION     0.68     1.27     7.89     0  02:20        1.00
  WS02006110           JUNCTION     0.68     1.40     7.98     0  02:36        1.02
  WS02006111           JUNCTION     0.19     0.29     6.99     0  03:18        0.29
  WS02006112           JUNCTION     0.78     1.07     6.95     0  02:45        1.05
  WS02006113           JUNCTION     0.29     0.46     7.35     0  03:11        0.45
  WS02006115           JUNCTION     0.51     0.77     6.90     0  02:40        0.76
  WS02006116           JUNCTION     0.60     0.84     6.88     0  02:40        0.84
  WS02006228           JUNCTION     0.67     1.52     8.17     0  02:20        1.06
  WS02006229           JUNCTION     0.64     1.60     8.29     0  02:20        1.10
  WS02006230           JUNCTION     0.64     1.95     8.70     0  02:20        1.28
  WS02006231           JUNCTION     0.44     1.45     8.57     0  02:20        0.98
  WS02006232           JUNCTION     0.58     1.56     8.59     0  02:20        1.13
  WS02006234           JUNCTION     0.50     1.51     8.66     0  02:36        1.25
  WS02006235           JUNCTION     0.53     1.59     8.75     0  02:36        1.39
  WS02006238           JUNCTION     0.56     1.62     8.77     0  02:36        1.44
  WS02006239           JUNCTION     0.53     1.62     8.83     0  02:51        1.48
  WS02006240           JUNCTION     0.49     1.58     8.88     0  02:51        1.46
  WS02006242           JUNCTION     0.56     1.55     8.82     0  02:51        1.53
  WS02006243           JUNCTION     0.46     1.46     8.88     0  02:51        1.39
  WS02006245           JUNCTION     0.46     1.38     8.87     0  02:51        1.31
  WS02006247           JUNCTION     0.48     1.31     8.81     0  02:51        1.26
  WS02006248           JUNCTION     0.44     1.10     8.69     0  02:20        1.10
  WS02006249           JUNCTION     0.47     1.09     8.69     0  02:10        1.09
  WS02006251           JUNCTION     0.46     1.43     9.10     0  02:10        1.13
  WS02006252           JUNCTION     0.36     1.50     9.74     0  00:00        0.70
  WS02006256           JUNCTION     1.02     2.35     9.28     0  00:00        2.35
  WSF200               JUNCTION     0.18     0.29     5.52     0  02:42        0.29
  YS02001580           JUNCTION     0.10     1.05     9.59     0  01:59        0.87
  YS02001583           JUNCTION     0.13     1.02     9.52     0  01:59        0.89
  YS02001586           JUNCTION     0.20     1.13     9.30     0  01:59        1.13
  YS02001590           JUNCTION     0.30     1.40     9.26     0  01:59        1.40
  YS02001593           JUNCTION     0.23     1.34     9.20     0  01:59        1.29
  YS02001596           JUNCTION     0.32     1.69     9.11     0  02:13        1.69
  YS02001600           JUNCTION     0.38     1.87     9.00     0  01:59        1.87
  YS02001601           JUNCTION     0.57     2.06     8.90     0  01:59        2.06
  YS02001602           JUNCTION     0.48     1.87     8.77     0  02:02        1.87
  YS02001605           JUNCTION     0.44     1.78     8.68     0  02:06        1.78
  YS02001607           JUNCTION     0.44     1.66     8.51     0  02:45        1.66
  YS02001610           JUNCTION     0.49     1.68     8.48     0  02:03        1.68
  YS02001613           JUNCTION     0.44     1.70     8.54     0  02:45        1.70
  YS02001616           JUNCTION     0.37     1.61     8.52     0  02:05        1.61
  YS02001619           JUNCTION     0.35     1.61     8.54     0  02:05        1.61
  YS02001622           JUNCTION     0.34     1.59     8.50     0  02:05        1.59
  YS02001625           JUNCTION     0.61     1.78     8.38     0  02:03        1.78
  YS02001629           JUNCTION     0.45     1.85     8.40     0  02:05        1.85
  YS02001633           JUNCTION     0.54     2.08     8.53     0  02:06        2.08
  YS02001641           JUNCTION     0.52     2.10     8.54     0  02:06        2.10
  YS02001644           JUNCTION     0.51     1.92     8.35     0  02:05        1.92
  YS02001647           JUNCTION     0.30     1.90     8.51     0  02:06        1.90
  YS02001649           JUNCTION     0.34     2.05     8.44     0  02:13        2.05
  YS02001652           JUNCTION     0.24     2.16     8.76     0  02:05        1.86
  YS02001655           JUNCTION     0.18     2.20     9.05     0  02:05        1.72
  YS02001658           JUNCTION     0.13     2.25     9.39     0  02:07        1.44
  YS02001661           JUNCTION     0.16     1.27     8.67     0  02:13        1.26
  YS02001664           JUNCTION     0.06     0.75     8.67     0  02:12        0.74
  YS02001745           JUNCTION     0.07     0.92     8.44     0  02:12        0.92
  YS02001748           JUNCTION     0.13     2.00     9.08     0  02:07        1.32
  YS02001751           JUNCTION     0.15     1.94     8.82     0  02:07        1.58
  YS02001754           JUNCTION     0.21     1.93     8.54     0  02:07        1.87
  YS02001757           JUNCTION     0.36     2.18     8.44     0  02:13        2.18
  YS02001759           JUNCTION     0.30     2.21     8.57     0  02:13        2.21
  YS02001762           JUNCTION     0.29     2.15     8.55     0  02:13        2.15
  YS02001765           JUNCTION     0.28     2.09     8.54     0  02:13        2.09
  YS02001767           JUNCTION     0.27     2.03     8.52     0  02:04        2.03
  YS02001770           JUNCTION     0.29     1.95     8.44     0  02:05        1.95
  YS02001774           JUNCTION     0.35     2.05     8.47     0  02:05        2.05
  YS02001779           JUNCTION     0.19     1.68     8.37     0  02:05        1.68
  YS02001783           JUNCTION     0.24     1.41     7.55     0  02:04        1.23
  YS02001784           JUNCTION     0.25     1.21     7.27     0  02:04        1.13
  YS02001786           JUNCTION     0.21     0.93     6.96     0  02:04        0.88
  YS02001788           JUNCTION     0.15     0.63     6.60     0  02:13        0.62
  YS02001790           JUNCTION     0.18     0.73     6.37     0  02:10        0.71
  YS02001791           JUNCTION     0.11     0.44     5.91     0  02:16        0.44
  YS02001793           JUNCTION     0.06     0.29     5.12     0  02:19        0.28
  YS02001882           JUNCTION     0.32     1.81     8.52     0  02:02        1.77
  YS02001884           JUNCTION     0.41     1.88     8.50     0  02:02        1.87
  YS02001887           JUNCTION     0.49     1.96     8.50     0  02:13        1.96
  YS02001890           JUNCTION     0.52     1.81     8.32     0  02:02        1.81
  YS02001895           JUNCTION     0.28     1.62     8.37     0  02:06        1.62
  YS02001898           JUNCTION     0.29     1.58     8.31     0  02:04        1.57
  YS02001901           JUNCTION     0.41     1.71     8.32     0  02:06        1.71
  YS02001904           JUNCTION     0.39     1.65     8.28     0  02:04        1.64
  YS02001907           JUNCTION     0.71     1.96     8.25     0  02:04        1.96
  YS02001910           JUNCTION     0.51     2.02     8.53     0  02:13        2.02
  YS02001915           JUNCTION     0.32     2.00     8.72     0  02:13        2.00
  YS02001918           JUNCTION     0.18     1.81     8.88     0  02:04        1.81
  YS02001920           JUNCTION     0.26     2.14     9.15     0  02:04        2.08
  YS02001923           JUNCTION     0.14     2.03     9.29     0  02:04        2.03
  YS02001926           JUNCTION     0.17     1.90     9.35     0  02:04        1.90
  YS02001929           JUNCTION     0.10     1.78     9.47     0  02:04        1.74
  YS02006553           JUNCTION     0.72     2.04     8.32     0  02:10        2.04
  YS02006556           JUNCTION     0.69     2.13     8.44     0  02:13        2.13
  YS02006558           JUNCTION     0.73     2.20     8.46     0  02:13        2.20
  YS02006561           JUNCTION     0.15     1.21     7.87     0  02:04        0.91
  YS02163301           JUNCTION     0.48     2.03     8.55     0  02:06        2.03
  YS02163601           JUNCTION     0.57     2.08     8.48     0  02:06        2.08
  YS02164001           JUNCTION     0.51     2.10     8.56     0  02:06        2.10
  CC-1                 OUTFALL      0.00     0.00     0.00     0  00:00        0.00
  CC-2                 OUTFALL      0.00     0.00     0.00     0  00:00        0.00
  JK-1                 OUTFALL      0.00     0.00     0.00     0  00:00        0.00
  JK-2                 OUTFALL      0.00     0.00     0.00     0  00:00        0.00
  WSC                  OUTFALL      0.19     0.29     0.96     0  02:45        0.29
  CC-storage           STORAGE      0.84     1.70     7.20     0  02:41        1.70
  JK-storage           STORAGE      2.87     4.23     5.03     0  02:36        4.16
  
  
  *******************
  Node Inflow Summary
  *******************
  
  -------------------------------------------------------------------------------------------------
                                  Maximum  Maximum                  Lateral       Total        Flow
                                  Lateral    Total  Time of Max      Inflow      Inflow     Balance
                                   Inflow   Inflow   Occurrence      Volume      Volume       Error
  Node                 Type           LPS      LPS  days hr:min    10^6 ltr    10^6 ltr     Percent
  -------------------------------------------------------------------------------------------------
  WS02003060           JUNCTION     16.53   540.82     0  02:43       0.476        6.16       0.055
  WS02003066           JUNCTION      0.00   524.02     0  02:43           0        5.69       0.031
  WS02003067           JUNCTION      0.00   523.88     0  02:43           0        5.69       0.084
  WS02003069           JUNCTION      0.32   540.91     0  02:43     0.00922        6.17       0.089
  WS02003072           JUNCTION      0.00   540.36     0  02:44           0        6.16       0.141
  WS02003073           JUNCTION      1.82   542.40     0  02:44      0.0524         6.2       0.117
  WS02004401           JUNCTION      0.00   536.13     0  02:43           0         5.8       0.196
  WS02004402           JUNCTION      0.00   533.20     0  02:41           0        5.79       0.197
  WS02004403           JUNCTION      0.00   533.24     0  02:38           0        5.78       0.190
  WS02004404           JUNCTION      0.16   546.35     0  02:26     0.00467        5.78       0.196
  WS02004405           JUNCTION      0.04   596.02     0  02:26      0.0011        5.77       0.162
  WS02004406           JUNCTION      0.00   534.22     0  02:40           0        5.76       0.387
  WS02004407           JUNCTION      0.00   529.74     0  02:41           0        5.73       0.034
  WS02004409           JUNCTION      0.00   529.08     0  02:41           0        5.73       0.074
  WS02004410           JUNCTION      0.00   529.72     0  02:41           0        5.73       0.103
  WS02004411           JUNCTION      0.00   526.56     0  02:41           0        5.72       0.123
  WS02004412           JUNCTION      0.00   525.47     0  02:42           0        5.72       0.157
  WS02004413           JUNCTION      0.00   524.47     0  02:42           0        5.71       0.269
  WS02006109           JUNCTION      1.23   562.73     0  02:20      0.0354        5.86       0.199
  WS02006110           JUNCTION      0.00   563.07     0  02:36           0        5.85       0.131
  WS02006111           JUNCTION      0.00   560.72     0  03:11           0        5.84       0.019
  WS02006112           JUNCTION      0.00   542.67     0  03:18           0        5.84       0.324
  WS02006113           JUNCTION      0.00   568.81     0  02:37           0        5.84       0.039
  WS02006115           JUNCTION      0.00   554.18     0  02:52           0        5.82       0.135
  WS02006116           JUNCTION      0.00   537.72     0  02:44           0        5.81       0.120
  WS02006228           JUNCTION      0.00   561.74     0  02:20           0        5.83       0.077
  WS02006229           JUNCTION      0.00   561.36     0  02:20           0        5.83       0.083
  WS02006230           JUNCTION     10.28   584.62     0  02:30       0.296        5.84       0.072
  WS02006231           JUNCTION      0.00   575.85     0  02:41           0        5.54       0.016
  WS02006232           JUNCTION      0.00   575.35     0  02:41           0        5.55       0.168
  WS02006234           JUNCTION      0.00   572.05     0  02:41           0        5.55      -0.125
  WS02006235           JUNCTION      0.00   566.13     0  02:41           0        5.62       0.151
  WS02006238           JUNCTION      0.00   426.53     0  02:45           0        4.76      -0.140
  WS02006239           JUNCTION      0.00   424.91     0  02:45           0        4.72      -0.129
  WS02006240           JUNCTION      0.00   420.54     0  02:45           0        4.69      -0.036
  WS02006242           JUNCTION      0.00   420.42     0  02:45           0        4.67       0.001
  WS02006243           JUNCTION      0.00   420.41     0  02:45           0        4.65      -0.046
  WS02006245           JUNCTION      0.00   421.51     0  02:45           0        4.65       0.207
  WS02006247           JUNCTION      0.00   421.55     0  02:45           0        4.65      -0.003
  WS02006248           JUNCTION      0.00   422.84     0  02:45           0        4.65       0.004
  WS02006249           JUNCTION      0.00   459.02     0  00:00           0        4.78       0.193
  WS02006251           JUNCTION      0.08   408.45     0  02:10     0.00222        4.78       0.011
  WS02006252           JUNCTION      0.00   400.00     0  00:00           0        4.77      -0.104
  WS02006256           JUNCTION      0.00   300.00     0  00:00           0        1.22      -0.741
  WSF200               JUNCTION      0.00   524.10     0  02:43           0        5.68       0.015
  YS02001580           JUNCTION      0.00    75.21     0  01:59           0     0.00414       2.528
  YS02001583           JUNCTION      0.00   130.65     0  01:59           0      0.0153      -4.504
  YS02001586           JUNCTION    987.05   987.05     0  02:15        2.08         2.1       0.046
  YS02001590           JUNCTION      0.00   318.72     0  02:34           0        1.46      -0.027
  YS02001593           JUNCTION      0.00   318.25     0  02:34           0        1.46       0.006
  YS02001596           JUNCTION      0.00   318.22     0  02:11           0        1.46      -0.011
  YS02001600           JUNCTION      0.00   318.44     0  02:13           0        1.46       0.015
  YS02001601           JUNCTION   1734.96  2052.50     0  02:14        2.85        4.31       0.012
  YS02001602           JUNCTION      0.00   501.64     0  01:58           0        2.42       0.014
  YS02001605           JUNCTION      0.00   501.38     0  01:58           0        2.28       0.019
  YS02001607           JUNCTION      0.00   500.44     0  01:58           0        2.28       0.084
  YS02001610           JUNCTION      0.00   950.59     0  02:16           0        2.73       0.075
  YS02001613           JUNCTION      0.00   614.34     0  02:16           0        2.16       0.074
  YS02001616           JUNCTION      0.00   614.29     0  02:16           0        2.16       0.015
  YS02001619           JUNCTION   1753.81  1753.81     0  02:15        3.35        5.05      -0.003
  YS02001622           JUNCTION      0.00  1053.92     0  02:16           0        4.58      -0.001
  YS02001625           JUNCTION      0.00  1502.62     0  02:16           0        4.91       0.178
  YS02001629           JUNCTION      0.00   931.26     0  02:03           0         3.7       0.021
  YS02001633           JUNCTION   1305.34  1368.99     0  02:03        2.09        5.37       0.062
  YS02001641           JUNCTION      0.00  1368.53     0  02:03           0        4.96       0.055
  YS02001644           JUNCTION   1163.76  1811.67     0  02:14        1.81        6.77       0.046
  YS02001647           JUNCTION      0.00  1768.64     0  02:03           0        5.91       0.005
  YS02001649           JUNCTION      0.00  2055.20     0  02:03           0        7.57      -0.001
  YS02001652           JUNCTION      0.00  1159.71     0  02:13           0        1.67      -0.067
  YS02001655           JUNCTION      0.15  1160.62     0  02:13     0.00443        1.66      -0.075
  YS02001658           JUNCTION      0.00  1160.25     0  02:13           0        1.66      -0.009
  YS02001661           JUNCTION      0.00  1160.08     0  02:13           0        1.66       0.019
  YS02001664           JUNCTION   1140.56  1140.56     0  02:13        1.66        1.66      -0.008
  YS02001745           JUNCTION    719.67   719.67     0  02:13       0.998       0.998       0.142
  YS02001748           JUNCTION      0.04   732.04     0  02:13      0.0013       0.998      -0.206
  YS02001751           JUNCTION      0.01   732.22     0  02:13    0.000317           1       0.087
  YS02001754           JUNCTION      0.26   733.14     0  02:13     0.00749        1.01      -0.146
  YS02001757           JUNCTION      0.00  3382.91     0  02:08           0        11.7       0.039
  YS02001759           JUNCTION   1001.43  1428.82     0  02:13        1.38        3.09      -0.016
  YS02001762           JUNCTION      0.00   777.58     0  02:08           0        1.71      -0.003
  YS02001765           JUNCTION      0.00   779.35     0  02:08           0         1.7      -0.011
  YS02001767           JUNCTION      0.54   780.48     0  02:08      0.0154         1.7      -0.009
  YS02001770           JUNCTION   1404.55  1404.55     0  02:13         2.1        2.15      -0.015
  YS02001774           JUNCTION      0.00   849.27     0  02:14           0       0.462       0.224
  YS02001779           JUNCTION      0.01   848.97     0  02:14    0.000144       0.416      -0.084
  YS02001783           JUNCTION      0.00  1173.84     0  02:13           0        4.42       0.005
  YS02001784           JUNCTION      1.06  1174.85     0  02:13      0.0305        4.45       0.011
  YS02001786           JUNCTION      0.06  1174.80     0  02:13     0.00162        4.45       0.016
  YS02001788           JUNCTION      0.07  1175.06     0  02:13     0.00204        4.45       0.007
  YS02001790           JUNCTION      0.15  1180.91     0  02:11     0.00446        4.45       0.022
  YS02001791           JUNCTION      0.00  1291.99     0  02:15           0        4.45      -0.025
  YS02001793           JUNCTION      0.00  1262.09     0  02:11           0        4.45       0.004
  YS02001882           JUNCTION      0.00    41.94     0  02:01           0      0.0127       4.192
  YS02001884           JUNCTION      0.00    53.43     0  02:01           0      0.0484       5.137
  YS02001887           JUNCTION   1075.25  1088.12     0  02:13        1.44        1.47       0.299
  YS02001890           JUNCTION      0.00  1089.63     0  02:13           0        1.43       0.348
  YS02001895           JUNCTION      0.00   517.84     0  02:12           0        1.22       0.136
  YS02001898           JUNCTION      0.00   517.99     0  02:12           0        1.21       0.008
  YS02001901           JUNCTION      0.00   518.08     0  02:14           0        1.22       0.263
  YS02001904           JUNCTION      0.00   517.37     0  02:12           0        1.22       0.222
  YS02001907           JUNCTION      0.00  2662.56     0  02:13           0        4.41       0.396
  YS02001910           JUNCTION      0.00  1874.56     0  02:14           0        3.13       0.224
  YS02001915           JUNCTION   1257.09  1873.74     0  02:14           2        3.16       0.047
  YS02001918           JUNCTION      0.00   619.58     0  02:14           0        1.19       0.007
  YS02001920           JUNCTION      2.87   619.18     0  02:14      0.0827        1.17       0.083
  YS02001923           JUNCTION      0.04   615.29     0  02:14     0.00109        1.08      -0.031
  YS02001926           JUNCTION      0.05   614.95     0  02:14      0.0015        1.06      -0.011
  YS02001929           JUNCTION    614.23   614.23     0  02:14        1.05        1.05      -0.022
  YS02006553           JUNCTION      0.00   801.84     0  02:31           0        2.47       0.485
  YS02006556           JUNCTION      0.00   801.66     0  02:31           0        2.48       0.315
  YS02006558           JUNCTION   1445.45  1445.45     0  02:13        2.11         4.5       0.077
  YS02006561           JUNCTION      0.00  1173.21     0  02:13           0        4.42      -0.003
  YS02163301           JUNCTION      0.00   930.92     0  02:03           0         3.7       0.040
  YS02163601           JUNCTION      0.11  1369.17     0  02:03     0.00317        4.96       0.095
  YS02164001           JUNCTION      0.00  1369.18     0  02:03           0        4.96       0.040
  CC-1                 OUTFALL       0.00   683.00     0  00:00           0        3.97       0.000
  CC-2                 OUTFALL       0.00   683.00     0  00:00           0        3.75       0.000
  JK-1                 OUTFALL       0.00  1000.00     0  00:00           0        2.36       0.000
  JK-2                 OUTFALL       0.00  1000.00     0  00:00           0       0.863       0.000
  WSC                  OUTFALL       0.00   541.56     0  02:45           0         6.2       0.000
  CC-storage           STORAGE       0.00  3383.38     0  02:08           0        13.9      -0.221
  JK-storage           STORAGE       0.00  1291.16     0  02:11           0         4.6       0.030
  
  
  **********************
  Node Surcharge Summary
  **********************
  
  Surcharging occurs when water rises above the top of the highest conduit.
  ---------------------------------------------------------------------
                                               Max. Height   Min. Depth
                                   Hours       Above Crown    Below Rim
  Node                 Type      Surcharged         Meters       Meters
  ---------------------------------------------------------------------
  WS02006109           JUNCTION        1.97          0.448        1.372
  WS02006110           JUNCTION        0.36          0.488        1.362
  WS02006112           JUNCTION        0.52          0.072        1.608
  WS02006228           JUNCTION        1.96          0.694        1.506
  WS02006229           JUNCTION        1.98          0.796        1.654
  WS02006230           JUNCTION        0.38          0.871        0.699
  WS02006231           JUNCTION        0.49          0.737        0.793
  WS02006232           JUNCTION        2.09          0.855        0.625
  WS02006234           JUNCTION        0.74          0.787        0.453
  WS02006235           JUNCTION        1.95          0.875        0.415
  WS02006238           JUNCTION        2.01          0.904        0.526
  WS02006239           JUNCTION        1.92          0.880        0.410
  WS02006240           JUNCTION        1.94          0.872        0.518
  WS02006242           JUNCTION        2.05          0.820        0.000
  WS02006243           JUNCTION        1.96          0.748        0.022
  WS02006245           JUNCTION        1.95          0.672        0.178
  WS02006247           JUNCTION        1.97          0.600        0.160
  WS02006248           JUNCTION        1.94          0.380        0.000
  WS02006249           JUNCTION        1.95          0.390        0.000
  WS02006251           JUNCTION        0.54          0.397        0.783
  WS02006252           JUNCTION        2.42          1.100        0.000
  WS02006256           JUNCTION        6.26          2.050        0.000
  YS02001580           JUNCTION        0.74          0.450        0.000
  YS02001583           JUNCTION        0.75          0.382        0.118
  YS02001586           JUNCTION        0.86          0.510        0.000
  YS02001590           JUNCTION        0.94          0.750        0.000
  YS02001593           JUNCTION        0.95          0.721        0.119
  YS02001596           JUNCTION        1.07          0.961        0.109
  YS02001600           JUNCTION        1.23          1.190        0.000
  YS02001601           JUNCTION        1.53          1.440        0.000
  YS02001602           JUNCTION        1.43          1.270        0.000
  YS02001605           JUNCTION        1.38          1.180        0.000
  YS02001607           JUNCTION        0.93          0.657        0.023
  YS02001610           JUNCTION        0.95          0.680        0.000
  YS02001613           JUNCTION        0.92          0.700        0.000
  YS02001616           JUNCTION        0.88          0.610        0.000
  YS02001619           JUNCTION        0.86          0.610        0.000
  YS02001622           JUNCTION        0.86          0.593        0.027
  YS02001625           JUNCTION        1.05          0.780        0.000
  YS02001629           JUNCTION        0.80          0.470        0.000
  YS02001633           JUNCTION        1.08          1.060        0.000
  YS02001641           JUNCTION        1.02          1.100        0.000
  YS02001644           JUNCTION        0.98          0.920        0.000
  YS02001647           JUNCTION        0.74          0.900        0.000
  YS02001649           JUNCTION        0.87          1.050        0.000
  YS02001652           JUNCTION        0.66          1.130        0.000
  YS02001655           JUNCTION        0.50          1.200        0.000
  YS02001658           JUNCTION        0.30          1.250        0.050
  YS02001661           JUNCTION        0.10          0.199        1.191
  YS02001748           JUNCTION        0.23          0.923        0.267
  YS02001751           JUNCTION        0.38          0.939        0.261
  YS02001754           JUNCTION        0.57          0.881        0.269
  YS02001757           JUNCTION        0.94          1.184        0.026
  YS02001759           JUNCTION        0.84          1.210        0.000
  YS02001762           JUNCTION        0.80          1.150        0.000
  YS02001765           JUNCTION        0.75          1.085        0.015
  YS02001767           JUNCTION        0.73          1.030        0.000
  YS02001770           JUNCTION        0.69          0.920        0.000
  YS02001774           JUNCTION        0.79          1.050        0.000
  YS02001779           JUNCTION        0.57          0.680        0.000
  YS02001783           JUNCTION        0.64          0.607        0.993
  YS02001784           JUNCTION        0.61          0.406        1.084
  YS02001786           JUNCTION        0.50          0.134        1.296
  YS02001882           JUNCTION        0.58          0.806        0.024
  YS02001884           JUNCTION        0.59          0.819        0.051
  YS02001887           JUNCTION        0.63          0.912        0.038
  YS02001890           JUNCTION        0.64          0.760        0.000
  YS02001895           JUNCTION        0.57          0.621        0.129
  YS02001898           JUNCTION        0.56          0.548        0.192
  YS02001901           JUNCTION        0.61          0.711        0.159
  YS02001904           JUNCTION        0.60          0.647        0.203
  YS02001907           JUNCTION        0.88          0.950        0.000
  YS02001910           JUNCTION        0.67          1.018        0.082
  YS02001915           JUNCTION        0.58          1.000        0.000
  YS02001918           JUNCTION        0.48          0.810        0.000
  YS02001920           JUNCTION        0.50          1.140        0.000
  YS02001923           JUNCTION        0.18          0.820        0.000
  YS02001926           JUNCTION        0.23          0.900        0.000
  YS02001929           JUNCTION        0.07          0.780        0.000
  YS02006553           JUNCTION        0.89          1.035        0.155
  YS02006556           JUNCTION        0.77          1.087        0.263
  YS02006558           JUNCTION        0.75          1.096        0.304
  YS02006561           JUNCTION        0.45          0.406        0.744
  YS02163301           JUNCTION        1.06          1.030        0.000
  YS02163601           JUNCTION        1.11          1.080        0.000
  YS02164001           JUNCTION        1.02          1.100        0.000
  
  
  *********************
  Node Flooding Summary
  *********************
  
  Flooding refers to all water that overflows a node, whether it ponds or not.
  --------------------------------------------------------------------------
                                                             Total   Maximum
                                 Maximum   Time of Max       Flood    Ponded
                        Hours       Rate    Occurrence      Volume     Depth
  Node                 Flooded       LPS   days hr:min    10^6 ltr    Meters
  --------------------------------------------------------------------------
  WS02006242              0.01      7.30      0  02:51       0.000     0.000
  WS02006248              0.01     13.97      0  02:51       0.000     0.000
  WS02006249              0.51    110.18      0  02:10       0.122     0.000
  WS02006252              0.01    245.63      0  00:00       0.000     0.000
  WS02006256              1.13    293.19      0  00:00       0.325     0.000
  YS02001580              0.01     38.75      0  01:59       0.000     0.000
  YS02001586              0.60    669.46      0  02:15       0.623     0.000
  YS02001590              0.01      5.84      0  01:59       0.000     0.000
  YS02001600              0.01      2.41      0  01:59       0.000     0.000
  YS02001601              0.79   1654.27      0  02:14       1.888     0.000
  YS02001602              0.66     62.19      0  02:34       0.136     0.000
  YS02001605              0.01      0.23      0  02:45       0.000     0.000
  YS02001610              0.59    950.36      0  02:16       1.028     0.000
  YS02001613              0.01      1.33      0  02:45       0.000     0.000
  YS02001616              0.03      2.35      0  02:13       0.000     0.000
  YS02001619              0.08    102.85      0  02:14       0.018     0.000
  YS02001625              0.55   1502.52      0  02:16       1.608     0.000
  YS02001629              0.20    227.44      0  02:13       0.085     0.000
  YS02001633              0.01      1.73      0  02:13       0.000     0.000
  YS02001641              0.01      0.97      0  02:06       0.000     0.000
  YS02001644              0.27   1791.37      0  02:13       0.851     0.000
  YS02001647              0.01      0.75      0  02:06       0.000     0.000
  YS02001649              0.01      0.13      0  02:13       0.000     0.000
  YS02001652              0.01     60.60      0  02:05       0.000     0.000
  YS02001655              0.01    256.37      0  02:05       0.000     0.000
  YS02001762              0.01      0.37      0  02:13       0.000     0.000
  YS02001767              0.01    114.04      0  02:04       0.000     0.000
  YS02001770              0.06    175.78      0  02:13       0.019     0.000
  YS02001774              0.01      8.70      0  02:05       0.000     0.000
  YS02001779              0.24    848.82      0  02:14       0.396     0.000
  YS02001890              0.24    571.42      0  02:13       0.209     0.000
  YS02001907              0.43   2659.82      0  02:14       1.984     0.000
  YS02001915              0.01      0.56      0  02:13       0.000     0.000
  YS02001918              0.01    104.22      0  02:05       0.001     0.000
  YS02001920              0.01     46.11      0  02:04       0.000     0.000
  YS02001923              0.01    144.05      0  02:04       0.000     0.000
  YS02001926              0.01    280.82      0  02:04       0.000     0.000
  YS02001929              0.01    257.78      0  02:04       0.000     0.000
  YS02163301              0.01      0.28      0  02:06       0.000     0.000
  YS02163601              0.01      1.01      0  02:13       0.000     0.000
  YS02164001              0.01      1.77      0  02:06       0.000     0.000
  
  
  **********************
  Storage Volume Summary
  **********************
  
  ------------------------------------------------------------------------------------------------
                         Average    Avg   Evap  Exfil     Maximum    Max    Time of Max    Maximum
                          Volume   Pcnt   Pcnt   Pcnt      Volume   Pcnt     Occurrence    Outflow
  Storage Unit           1000 m³   Full   Loss   Loss     1000 m³   Full    days hr:min        LPS
  ------------------------------------------------------------------------------------------------
  CC-storage               2.353   36.7    0.0    0.0       4.748   74.1       0  02:41    1783.53
  JK-storage               0.144   49.5    0.0    0.0       0.212   72.9       0  02:36    2300.00
  
  
  ***********************
  Outfall Loading Summary
  ***********************
  
  -----------------------------------------------------------
                         Flow       Avg       Max       Total
                         Freq      Flow      Flow      Volume
  Outfall Node           Pcnt       LPS       LPS    10^6 ltr
  -----------------------------------------------------------
  CC-1                  24.48    683.00    683.00       3.969
  CC-2                  18.79    683.00    683.00       3.752
  JK-1                   9.63   1000.00   1000.00       2.362
  JK-2                   3.38   1000.00   1000.00       0.863
  WSC                   99.96    270.38    541.56       6.196
  -----------------------------------------------------------
  System                31.25   3636.38   3907.56      17.143
  
  
  ********************
  Link Flow Summary
  ********************
  
  -----------------------------------------------------------------------------
                                 Maximum  Time of Max   Maximum    Max/    Max/
                                  |Flow|   Occurrence   |Veloc|    Full    Full
  Link                 Type          LPS  days hr:min     m/sec    Flow   Depth
  -----------------------------------------------------------------------------
  1                    CONDUIT    541.56     0  02:45      2.81    0.19    0.29
  WS02003060WS02003069 CONDUIT    540.59     0  02:43      1.64    0.21    0.33
  WS02003066WSF200     CONDUIT    524.10     0  02:43      2.84    0.09    0.22
  WS02003067WS02003066 CONDUIT    524.02     0  02:43      1.19    0.17    0.41
  WS02003069WS02003072 CONDUIT    540.36     0  02:44      1.36    0.26    0.38
  WS02003072WS02003073 CONDUIT    540.58     0  02:44      1.42    1.17    0.37
  WS02004401WS02004402 CONDUIT    533.20     0  02:41      0.98    0.64    0.88
  WS02004402WS02004403 CONDUIT    533.24     0  02:38      0.97    0.77    0.90
  WS02004403WS02004404 CONDUIT    546.19     0  02:26      0.92    0.39    0.95
  WS02004404WS02004405 CONDUIT    595.99     0  02:26      1.08    5.84    0.97
  WS02004405WS02004406 CONDUIT    534.22     0  02:40      0.99    1.05    0.96
  WS02004406WS02004407 CONDUIT    529.74     0  02:41      1.03    0.24    0.62
  WS02004407WS02004409 CONDUIT    529.08     0  02:41      1.47    0.19    0.48
  WS02004409WS02004410 CONDUIT    529.72     0  02:41      0.96    0.69    0.66
  WS02004410WS02004411 CONDUIT    526.56     0  02:41      0.94    0.72    0.68
  WS02004411WS02004412 CONDUIT    525.47     0  02:42      0.92    0.75    0.69
  WS02004412WS02004413 CONDUIT    524.47     0  02:42      0.81    0.35    0.77
  WS02004413WS02003067 CONDUIT    523.88     0  02:43      1.09    0.22    0.59
  WS02006109WS02006110 CONDUIT    563.07     0  02:36      1.12    1.08    1.00
  WS02006110WS02006113 CONDUIT    568.81     0  02:37      1.38    0.52    0.79
  WS02006111WS02006112 CONDUIT    542.67     0  03:18      1.81    0.26    0.67
  WS02006112WS02006115 CONDUIT    554.18     0  02:52      0.78    0.33    0.88
  WS02006113WS02006111 CONDUIT    560.72     0  03:11      2.47    0.67    0.46
  WS02006115WS02006116 CONDUIT    537.72     0  02:44      0.97    0.69    0.77
  WS02006116WS02004401 CONDUIT    536.13     0  02:43      0.98    0.74    0.86
  WS02006228WS02006109 CONDUIT    561.50     0  02:20      1.12    2.45    1.00
  WS02006229WS02006228 CONDUIT    561.74     0  02:20      1.14    1.86    1.00
  WS02006230WS02006229 CONDUIT    561.36     0  02:20      1.46   12.49    1.00
  WS02006231WS02006230 CONDUIT    574.34     0  02:30      1.56    8.71    1.00
  WS02006232WS02006231 CONDUIT    575.85     0  02:41      1.50    1.21    1.00
  WS02006234WS02006232 CONDUIT    575.35     0  02:41      1.50    1.16    1.00
  WS02006235WS02006234 CONDUIT    572.05     0  02:41      1.49    6.04    1.00
  WS02006238WS02006235 CONDUIT    426.47     0  02:45      1.45    0.95    1.00
  WS02006239WS02006238 CONDUIT    426.53     0  02:45      1.11    1.36    1.00
  WS02006240WS02006239 CONDUIT    424.91     0  02:45      1.24    1.34    1.00
  WS02006242WS02006240 CONDUIT    420.54     0  02:45      1.13    1.67    1.00
  WS02006243WS02006242 CONDUIT    420.42     0  02:45      1.40    0.90    1.00
  WS02006245WS02006243 CONDUIT    420.41     0  02:45      1.45    1.24    1.00
  WS02006247WS02006245 CONDUIT    421.51     0  02:45      1.43    3.34    1.00
  WS02006248WS02006247 CONDUIT    421.55     0  02:45      1.44    0.92    1.00
  WS02006249WS02006248 CONDUIT    422.84     0  02:45      1.36    2.32    1.00
  WS02006251WS02006249 CONDUIT    459.02     0  00:00      1.99    1.32    1.00
  WS02006252WS02006251 CONDUIT    408.37     0  02:10     25.24    1.50    1.00
  WS02006256WS02006235 CONDUIT    288.91     0  00:00      4.23    3.06    1.00
  WSF200WS02003060     CONDUIT    524.29     0  02:43      2.05    0.12    0.28
  YS02001580YS02001583 CONDUIT     75.21     0  01:59      0.56    0.29    1.00
  YS02001583YS02001586 CONDUIT    130.65     0  01:59      0.54    0.20    1.00
  YS02001586YS02001590 CONDUIT    318.72     0  02:34      1.25    0.56    1.00
  YS02001590YS02001593 CONDUIT    318.25     0  02:34      1.13    2.00    1.00
  YS02001593YS02001596 CONDUIT    318.22     0  02:11      1.75    0.50    1.00
  YS02001596YS02001600 CONDUIT    318.44     0  02:13      1.27    0.62    1.00
  YS02001600YS02001601 CONDUIT    318.22     0  02:34      1.13    0.55    1.00
  YS02001601YS02001602 CONDUIT    501.64     0  01:58      1.77    1.81    1.00
  YS02001602YS02001605 CONDUIT    501.38     0  01:58      1.77   10.61    1.00
  YS02001605YS02001607 CONDUIT    500.44     0  01:58      1.77    2.74    1.00
  YS02001607YS02001610 CONDUIT    499.42     0  01:58      0.64    0.47    1.00
  YS02001610YS02001613 CONDUIT    614.46     0  02:16      0.78    0.71    1.00
  YS02001613YS02001616 CONDUIT    614.34     0  02:16      0.78    0.53    1.00
  YS02001616YS02001619 CONDUIT    614.29     0  02:16      0.78    1.07    1.00
  YS02001619YS02001622 CONDUIT   1053.92     0  02:16      1.34    1.55    1.00
  YS02001622YS02001625 CONDUIT   1053.59     0  02:16      1.34    0.56    1.00
  YS02001625YS02001629 CONDUIT    931.26     0  02:03      1.19    0.44    1.00
  YS02001629YS02163301 CONDUIT    930.92     0  02:03      1.19    1.15    1.00
  YS02001633YS02163601 CONDUIT   1369.06     0  02:03      1.74    1.44    1.00
  YS02001641YS02001644 CONDUIT   1368.19     0  02:03      1.74    4.42    1.00
  YS02001644YS02001647 CONDUIT   1768.64     0  02:03      2.26    1.04    1.00
  YS02001647YS02001649 CONDUIT   1789.87     0  02:03      2.34    0.95    1.00
  YS02001649YS02001757 CONDUIT   2050.32     0  02:03      2.62    1.24    1.00
  YS02001652YS02001649 CONDUIT   1159.81     0  02:13      1.48    0.57    1.00
  YS02001655YS02001652 CONDUIT   1159.71     0  02:13      1.48    0.56    1.00
  YS02001658YS02001655 CONDUIT   1160.47     0  02:13      1.86    0.49    1.00
  YS02001661YS02001658 CONDUIT   1160.25     0  02:13      2.28    0.46    1.00
  YS02001664YS02001661 CONDUIT   1160.08     0  02:13      2.27    0.36    0.87
  YS02001745YS02001748 CONDUIT    732.00     0  02:13      2.14    0.28    0.96
  YS02001748YS02001751 CONDUIT    732.21     0  02:13      1.66    0.37    1.00
  YS02001751YS02001754 CONDUIT    732.88     0  02:13      1.41    0.35    1.00
  YS02001754YS02001757 CONDUIT    731.87     0  02:13      0.93    0.29    1.00
  YS02001757CaochengTiaoxuchi CONDUIT   3383.38     0  02:08      4.31    1.46    1.00
  YS02001759YS02001757 CONDUIT   1435.39     0  02:13      1.83    1.02    1.00
  YS02001762YS02001759 CONDUIT    775.23     0  02:08      0.99    0.89    1.00
  YS02001765YS02001762 CONDUIT    777.58     0  02:08      0.99    0.73    1.00
  YS02001767YS02001765 CONDUIT    779.35     0  02:08      0.99    0.98    1.00
  YS02001770YS02001767 CONDUIT    779.95     0  02:08      0.99    3.09    1.00
  YS02001774YS02001770 CONDUIT    849.27     0  02:14      1.08    0.54    1.00
  YS02001779YS02001774 CONDUIT    848.97     0  02:14      1.08    0.43    1.00
  YS02001783YS02001784 CONDUIT   1173.79     0  02:13      2.34    1.62    1.00
  YS02001784YS02001785 CONDUIT   1174.74     0  02:13      2.34    2.73    1.00
  YS02001786YS02001788 CONDUIT   1174.99     0  02:13      2.49    2.26    0.89
  YS02001788YS02001790 CONDUIT   1180.76     0  02:11      2.72    0.87    0.84
  YS02001790YS02001791 CONDUIT   1291.99     0  02:15      3.43    1.41    0.71
  YS02001791YS02001793 CONDUIT   1262.09     0  02:11      6.76    0.54    0.43
  YS02001793JiankangQianchi CONDUIT   1291.16     0  02:11      2.57    0.10    0.64
  YS02001882YS02001884 CONDUIT     41.94     0  02:01      0.13    0.05    1.00
  YS02001884YS02001887 CONDUIT     53.43     0  02:01      0.10    0.07    1.00
  YS02001887YS02001890 CONDUIT   1089.63     0  02:13      1.39    1.86    1.00
  YS02001890YS02001895 CONDUIT    517.84     0  02:12      0.66    0.24    1.00
  YS02001895YS02001898 CONDUIT    517.99     0  02:12      0.66    0.90    1.00
  YS02001898YS02001901 CONDUIT    518.08     0  02:14      0.66    0.33    1.00
  YS02001901YS02001904 CONDUIT    517.37     0  02:12      0.66    0.80    1.00
  YS02001904YS02001907 CONDUIT    517.79     0  02:11      0.66    0.18    1.00
  YS02001907YS02006553 CONDUIT    801.84     0  02:31      0.89    0.94    1.00
  YS02001910YS02001907 CONDUIT   1874.04     0  02:14      2.39    1.06    1.00
  YS02001915YS02001910 CONDUIT   1874.56     0  02:14      2.39    0.93    1.00
  YS02001918YS02001915 CONDUIT    619.93     0  02:14      0.79    0.34    1.00
  YS02001920YS02001918 CONDUIT    619.58     0  02:14      0.79    0.60    1.00
  YS02001923YS02001920 CONDUIT    616.31     0  02:14      0.78    0.28    1.00
  YS02001926YS02001923 CONDUIT    615.25     0  02:14      0.95    0.88    1.00
  YS02001929YS02001926 CONDUIT    614.90     0  02:14      1.09    0.29    1.00
  YS02006553YS02006556 CONDUIT    801.66     0  02:31      1.02    0.69    1.00
  YS02006556YS02006558 CONDUIT    803.10     0  02:32      1.02    0.63    1.00
  YS02006558YS02006561 CONDUIT   1173.21     0  02:13      4.15    2.59    1.00
  YS02006561YS02001783 CONDUIT   1173.84     0  02:13      2.34    0.61    1.00
  YS02163301YS02001633 CONDUIT    930.82     0  02:03      1.19    0.88    1.00
  YS02163601YS02164001 CONDUIT   1369.18     0  02:03      1.74    1.21    1.00
  YS02164001YS02001641 CONDUIT   1368.53     0  02:03      1.74    1.87    1.00
  CC-R1                PUMP       683.00     0  00:00              1.00
  CC-R2                PUMP       683.00     0  00:00              1.00
  CC-S1                PUMP       200.00     0  00:00              1.00
  CC-S2                PUMP       200.00     0  00:00              1.00
  JK-R1                PUMP      1000.00     0  00:00              1.00
  JK-R2                PUMP      1000.00     0  00:00              1.00
  JK-S                 PUMP       300.00     0  00:00              1.00
  
  
  ***************************
  Flow Classification Summary
  ***************************
  
  -------------------------------------------------------------------------------------
                      Adjusted    ---------- Fraction of Time in Flow Class ---------- 
                       /Actual         Up    Down  Sub   Sup   Up    Down  Norm  Inlet 
  Conduit               Length    Dry  Dry   Dry   Crit  Crit  Crit  Crit  Ltd   Ctrl  
  -------------------------------------------------------------------------------------
  1                       1.00   0.00  0.00  0.00  0.00  1.00  0.00  0.00  0.44  0.00
  WS02003060WS02003069    1.00   0.00  0.00  0.00  0.98  0.02  0.00  0.00  0.59  0.00
  WS02003066WSF200        1.00   0.13  0.00  0.00  0.00  0.87  0.00  0.00  0.81  0.00
  WS02003067WS02003066    1.00   0.10  0.02  0.00  0.88  0.00  0.00  0.00  0.00  0.00
  WS02003069WS02003072    1.00   0.00  0.00  0.00  0.99  0.01  0.00  0.00  0.72  0.00
  WS02003072WS02003073    1.00   0.00  0.00  0.00  0.00  0.00  0.00  1.00  0.00  0.00
  WS02004401WS02004402    1.00   0.02  0.00  0.00  0.98  0.00  0.00  0.00  0.00  0.00
  WS02004402WS02004403    1.00   0.02  0.00  0.00  0.97  0.00  0.00  0.00  0.00  0.00
  WS02004403WS02004404    1.00   0.00  0.03  0.00  0.97  0.00  0.00  0.00  0.00  0.00
  WS02004404WS02004405    1.00   0.00  0.00  0.00  1.00  0.00  0.00  0.00  0.01  0.00
  WS02004405WS02004406    1.00   0.00  0.00  0.00  1.00  0.00  0.00  0.00  0.00  0.00
  WS02004406WS02004407    1.00   0.00  0.05  0.00  0.95  0.00  0.00  0.00  0.00  0.00
  WS02004407WS02004409    1.00   0.05  0.00  0.00  0.94  0.01  0.00  0.00  0.95  0.00
  WS02004409WS02004410    1.00   0.05  0.00  0.00  0.95  0.00  0.00  0.00  0.03  0.00
  WS02004410WS02004411    1.00   0.05  0.00  0.00  0.95  0.00  0.00  0.00  0.01  0.00
  WS02004411WS02004412    1.00   0.05  0.00  0.00  0.95  0.00  0.00  0.00  0.00  0.00
  WS02004412WS02004413    1.00   0.05  0.00  0.00  0.94  0.00  0.00  0.00  0.01  0.00
  WS02004413WS02003067    1.00   0.06  0.04  0.00  0.00  0.00  0.90  0.00  0.00  0.00
  WS02006109WS02006110    1.00   0.00  0.01  0.00  0.98  0.00  0.01  0.00  0.00  0.00
  WS02006110WS02006113    1.00   0.01  0.01  0.00  0.98  0.00  0.00  0.00  0.00  0.00
  WS02006111WS02006112    1.00   0.02  0.00  0.00  0.98  0.00  0.00  0.00  0.98  0.00
  WS02006112WS02006115    1.00   0.02  0.00  0.00  0.97  0.00  0.00  0.00  0.00  0.00
  WS02006113WS02006111    1.00   0.02  0.00  0.00  0.00  0.98  0.00  0.00  0.16  0.00
  WS02006115WS02006116    1.00   0.02  0.00  0.00  0.97  0.00  0.00  0.01  0.00  0.00
  WS02006116WS02004401    1.00   0.02  0.00  0.00  0.98  0.00  0.00  0.00  0.00  0.00
  WS02006228WS02006109    1.00   0.00  0.00  0.00  1.00  0.00  0.00  0.00  0.01  0.00
  WS02006229WS02006228    1.00   0.00  0.00  0.00  0.99  0.00  0.00  0.01  0.00  0.00
  WS02006230WS02006229    1.00   0.00  0.00  0.00  0.99  0.00  0.00  0.01  0.00  0.00
  WS02006231WS02006230    1.00   0.00  0.00  0.00  0.30  0.00  0.70  0.00  0.00  0.00
  WS02006232WS02006231    1.00   0.00  0.00  0.00  0.99  0.00  0.01  0.00  0.00  0.00
  WS02006234WS02006232    1.00   0.00  0.00  0.00  1.00  0.00  0.00  0.00  0.12  0.00
  WS02006235WS02006234    1.00   0.00  0.00  0.00  0.82  0.00  0.18  0.00  0.00  0.00
  WS02006238WS02006235    1.00   0.00  0.00  0.00  1.00  0.00  0.00  0.00  0.00  0.00
  WS02006239WS02006238    1.00   0.00  0.00  0.00  1.00  0.00  0.00  0.00  0.23  0.00
  WS02006240WS02006239    1.00   0.00  0.00  0.00  0.69  0.00  0.00  0.31  0.02  0.00
  WS02006242WS02006240    1.00   0.00  0.00  0.00  0.99  0.00  0.01  0.00  0.00  0.00
  WS02006243WS02006242    1.00   0.00  0.00  0.00  0.99  0.00  0.00  0.01  0.40  0.00
  WS02006245WS02006243    1.00   0.00  0.00  0.00  0.76  0.00  0.00  0.23  0.02  0.00
  WS02006247WS02006245    1.00   0.00  0.00  0.00  0.98  0.00  0.00  0.02  0.00  0.00
  WS02006248WS02006247    1.00   0.00  0.00  0.00  0.99  0.00  0.00  0.01  0.21  0.00
  WS02006249WS02006248    1.00   0.00  0.00  0.00  0.58  0.00  0.42  0.00  0.00  0.00
  WS02006251WS02006249    1.00   0.00  0.00  0.00  0.99  0.01  0.00  0.00  0.43  0.00
  WS02006252WS02006251    1.00   0.00  0.46  0.00  0.07  0.00  0.47  0.00  0.00  0.00
  WS02006256WS02006235    1.00   0.00  0.00  0.00  1.00  0.00  0.00  0.00  0.00  0.00
  WSF200WS02003060        1.00   0.00  0.13  0.00  0.25  0.63  0.00  0.00  0.36  0.00
  YS02001580YS02001583    1.00   0.24  0.55  0.00  0.21  0.00  0.00  0.00  0.64  0.00
  YS02001583YS02001586    1.00   0.41  0.33  0.00  0.26  0.00  0.00  0.00  0.64  0.00
  YS02001586YS02001590    1.00   0.13  0.00  0.00  0.45  0.04  0.00  0.38  0.37  0.00
  YS02001590YS02001593    1.00   0.13  0.01  0.00  0.13  0.00  0.73  0.00  0.00  0.00
  YS02001593YS02001596    1.00   0.13  0.00  0.00  0.15  0.01  0.00  0.71  0.02  0.00
  YS02001596YS02001600    1.00   0.14  0.00  0.00  0.21  0.01  0.00  0.64  0.04  0.00
  YS02001600YS02001601    1.00   0.13  0.01  0.00  0.86  0.00  0.00  0.00  0.59  0.00
  YS02001601YS02001602    1.00   0.13  0.01  0.00  0.87  0.00  0.00  0.00  0.00  0.00
  YS02001602YS02001605    1.00   0.13  0.00  0.00  0.86  0.00  0.00  0.00  0.00  0.00
  YS02001605YS02001607    1.00   0.14  0.00  0.00  0.86  0.00  0.00  0.00  0.00  0.00
  YS02001607YS02001610    1.00   0.13  0.01  0.00  0.86  0.00  0.00  0.00  0.01  0.00
  YS02001610YS02001613    1.00   0.13  0.00  0.00  0.87  0.00  0.00  0.00  0.00  0.00
  YS02001613YS02001616    1.00   0.13  0.00  0.00  0.87  0.00  0.00  0.00  0.00  0.00
  YS02001616YS02001619    1.00   0.13  0.00  0.00  0.87  0.00  0.00  0.00  0.00  0.00
  YS02001619YS02001622    1.00   0.13  0.00  0.00  0.87  0.00  0.00  0.00  0.28  0.00
  YS02001622YS02001625    1.00   0.13  0.00  0.00  0.87  0.00  0.00  0.00  0.04  0.00
  YS02001625YS02001629    1.00   0.13  0.05  0.00  0.18  0.00  0.65  0.00  0.00  0.00
  YS02001629YS02163301    1.00   0.15  0.01  0.00  0.84  0.00  0.00  0.00  0.00  0.00
  YS02001633YS02163601    1.00   0.00  0.01  0.00  0.99  0.00  0.00  0.00  0.15  0.00
  YS02001641YS02001644    1.00   0.00  0.01  0.00  0.99  0.00  0.00  0.00  0.00  0.00
  YS02001644YS02001647    1.00   0.00  0.17  0.00  0.83  0.00  0.00  0.00  0.00  0.00
  YS02001647YS02001649    1.00   0.00  0.17  0.00  0.54  0.29  0.00  0.00  0.54  0.00
  YS02001649YS02001757    1.00   0.00  0.00  0.00  0.85  0.14  0.00  0.00  0.41  0.00
  YS02001652YS02001649    1.00   0.00  0.00  0.00  0.97  0.03  0.00  0.00  0.72  0.00
  YS02001655YS02001652    1.00   0.00  0.00  0.00  0.20  0.02  0.00  0.78  0.06  0.00
  YS02001658YS02001655    1.00   0.00  0.14  0.00  0.67  0.19  0.00  0.00  0.67  0.00
  YS02001661YS02001658    1.00   0.14  0.00  0.00  0.51  0.35  0.00  0.00  0.67  0.00
  YS02001664YS02001661    1.00   0.13  0.00  0.00  0.77  0.11  0.00  0.00  0.84  0.00
  YS02001745YS02001748    1.00   0.00  0.00  0.00  0.11  0.01  0.00  0.88  0.04  0.00
  YS02001748YS02001751    1.00   0.00  0.00  0.00  0.83  0.17  0.00  0.00  0.74  0.00
  YS02001751YS02001754    1.00   0.00  0.00  0.00  0.17  0.01  0.00  0.82  0.03  0.00
  YS02001754YS02001757    1.00   0.00  0.00  0.00  1.00  0.00  0.00  0.00  0.79  0.00
  YS02001757CaochengTiaoxuchi    1.00   0.00  0.00  0.00  0.96  0.04  0.00  0.00  0.61  0.00
  YS02001759YS02001757    1.00   0.00  0.00  0.00  1.00  0.00  0.00  0.00  0.50  0.00
  YS02001762YS02001759    1.00   0.00  0.00  0.00  1.00  0.00  0.00  0.00  0.06  0.00
  YS02001765YS02001762    1.00   0.00  0.00  0.00  1.00  0.00  0.00  0.00  0.64  0.00
  YS02001767YS02001765    1.00   0.00  0.00  0.00  1.00  0.00  0.00  0.00  0.01  0.00
  YS02001770YS02001767    1.00   0.00  0.00  0.00  1.00  0.00  0.00  0.00  0.00  0.00
  YS02001774YS02001770    1.00   0.00  0.13  0.00  0.70  0.00  0.16  0.00  0.03  0.00
  YS02001779YS02001774    1.00   0.00  0.00  0.00  1.00  0.00  0.00  0.00  0.75  0.00
  YS02001783YS02001784    1.00   0.00  0.18  0.00  0.82  0.00  0.00  0.00  0.55  0.00
  YS02001784YS02001785    1.00   0.00  0.00  0.00  1.00  0.00  0.00  0.00  0.16  0.00
  YS02001786YS02001788    1.00   0.00  0.00  0.00  0.80  0.20  0.00  0.00  0.00  0.00
  YS02001788YS02001790    1.00   0.00  0.00  0.00  0.21  0.79  0.00  0.00  0.80  0.00
  YS02001790YS02001791    1.00   0.00  0.00  0.00  0.01  0.99  0.00  0.00  0.16  0.00
  YS02001791YS02001793    1.00   0.00  0.00  0.00  0.00  1.00  0.00  0.00  0.01  0.00
  YS02001793JiankangQianchi    1.00   0.00  0.00  0.00  0.97  0.03  0.00  0.00  0.96  0.00
  YS02001882YS02001884    1.00   0.15  0.01  0.00  0.84  0.00  0.00  0.00  0.00  0.00
  YS02001884YS02001887    1.00   0.06  0.05  0.00  0.89  0.00  0.00  0.00  0.00  0.00
  YS02001887YS02001890    1.00   0.00  0.00  0.00  0.97  0.00  0.03  0.00  0.00  0.00
  YS02001890YS02001895    1.00   0.00  0.16  0.00  0.84  0.00  0.00  0.00  0.00  0.00
  YS02001895YS02001898    1.00   0.16  0.00  0.00  0.82  0.00  0.02  0.00  0.00  0.00
  YS02001898YS02001901    1.00   0.16  0.00  0.00  0.84  0.00  0.00  0.00  0.01  0.00
  YS02001901YS02001904    1.00   0.16  0.00  0.00  0.84  0.00  0.00  0.00  0.00  0.00
  YS02001904YS02001907    1.00   0.00  0.16  0.00  0.84  0.00  0.00  0.00  0.00  0.00
  YS02001907YS02006553    1.00   0.00  0.02  0.00  0.98  0.00  0.00  0.00  0.00  0.00
  YS02001910YS02001907    1.00   0.00  0.00  0.00  0.97  0.00  0.00  0.03  0.12  0.00
  YS02001915YS02001910    1.00   0.00  0.00  0.00  0.97  0.03  0.00  0.00  0.15  0.00
  YS02001918YS02001915    1.00   0.00  0.01  0.00  0.98  0.02  0.00  0.00  0.73  0.00
  YS02001920YS02001918    1.00   0.00  0.01  0.00  0.99  0.00  0.00  0.00  0.00  0.00
  YS02001923YS02001920    1.00   0.00  0.00  0.00  1.00  0.00  0.00  0.00  0.91  0.00
  YS02001926YS02001923    1.00   0.00  0.07  0.00  0.07  0.00  0.85  0.00  0.00  0.00
  YS02001929YS02001926    1.00   0.00  0.13  0.00  0.87  0.00  0.00  0.00  0.81  0.00
  YS02006553YS02006556    1.00   0.01  0.00  0.00  0.99  0.00  0.00  0.00  0.03  0.00
  YS02006556YS02006558    1.00   0.00  0.00  0.00  1.00  0.00  0.00  0.00  0.00  0.00
  YS02006558YS02006561    1.00   0.18  0.00  0.00  0.07  0.76  0.00  0.00  0.17  0.00
  YS02006561YS02001783    1.00   0.18  0.00  0.00  0.10  0.72  0.00  0.00  0.67  0.00
  YS02163301YS02001633    1.00   0.00  0.15  0.00  0.85  0.00  0.00  0.00  0.00  0.00
  YS02163601YS02164001    1.00   0.00  0.08  0.00  0.92  0.00  0.00  0.00  0.00  0.00
  YS02164001YS02001641    1.00   0.01  0.07  0.00  0.92  0.00  0.00  0.00  0.05  0.00
  
  
  *************************
  Conduit Surcharge Summary
  *************************
  
  ----------------------------------------------------------------------------
                                                           Hours        Hours 
                         --------- Hours Full --------   Above Full   Capacity
  Conduit                Both Ends  Upstream  Dnstream   Normal Flow   Limited
  ----------------------------------------------------------------------------
  WS02003072WS02003073        0.01      0.01      0.01      0.90         0.01
  WS02004404WS02004405        0.01      0.01      0.01      4.40         0.01
  WS02004405WS02004406        0.01      0.01      0.01      0.29         0.01
  WS02006109WS02006110        0.36      0.36      2.08      0.47         0.01
  WS02006110WS02006113        0.01      0.01      2.01      0.01         0.01
  WS02006111WS02006112        0.01      0.01      3.05      0.01         0.01
  WS02006112WS02006115        0.01      0.01      0.52      0.01         0.01
  WS02006228WS02006109        1.97      2.08      1.97      3.51         1.96
  WS02006229WS02006228        1.95      1.98      1.95      2.65         1.95
  WS02006230WS02006229        2.25      2.53      2.25      4.99         2.25
  WS02006231WS02006230        0.38      0.38      0.53      4.67         0.01
  WS02006232WS02006231        0.49      0.49      2.09      0.54         0.01
  WS02006234WS02006232        1.90      1.90      2.09      0.52         0.52
  WS02006235WS02006234        0.74      0.74      1.94      4.55         0.01
  WS02006238WS02006235        1.98      1.98      2.10      0.01         0.01
  WS02006239WS02006238        1.98      2.02      2.01      2.29         1.83
  WS02006240WS02006239        1.92      1.95      1.92      2.27         1.74
  WS02006242WS02006240        1.94      1.94      2.13      2.53         0.01
  WS02006243WS02006242        1.97      1.97      2.05      0.01         0.04
  WS02006245WS02006243        1.95      1.96      1.96      1.86         1.58
  WS02006247WS02006245        1.95      1.98      1.95      4.16         1.94
  WS02006248WS02006247        1.95      1.95      1.97      0.01         0.04
  WS02006249WS02006248        1.94      1.94      1.95      4.12         0.01
  WS02006251WS02006249        1.95      1.96      1.95      2.35         1.89
  WS02006252WS02006251        2.41      2.41      2.41      2.41         0.01
  WS02006256WS02006235        4.56      4.60      6.23      1.13         0.01
  YS02001580YS02001583        0.74      0.74      0.79      0.01         0.01
  YS02001583YS02001586        0.75      0.75      0.86      0.01         0.01
  YS02001586YS02001590        0.87      0.87      0.94      0.01         0.01
  YS02001590YS02001593        0.95      0.95      0.97      0.98         0.01
  YS02001593YS02001596        0.96      0.96      1.07      0.01         0.01
  YS02001596YS02001600        1.12      1.12      1.23      0.01         0.01
  YS02001600YS02001601        1.28      1.28      1.53      0.01         0.01
  YS02001601YS02001602        1.43      1.43      1.56      1.23         0.01
  YS02001602YS02001605        1.38      1.38      1.43      2.38         0.01
  YS02001605YS02001607        1.34      1.38      1.34      1.49         1.34
  YS02001607YS02001610        0.93      0.93      0.95      0.01         0.01
  YS02001610YS02001613        0.92      0.92      0.95      0.01         0.01
  YS02001613YS02001616        0.88      0.88      0.92      0.01         0.01
  YS02001616YS02001619        0.86      0.86      0.88      0.07         0.08
  YS02001619YS02001622        0.86      0.86      0.86      0.96         0.83
  YS02001622YS02001625        0.86      0.86      1.05      0.01         0.01
  YS02001625YS02001629        0.80      0.80      1.05      0.01         0.01
  YS02001629YS02163301        1.05      1.05      1.06      0.19         0.20
  YS02001633YS02163601        1.08      1.08      1.11      0.38         0.36
  YS02001641YS02001644        0.98      1.02      0.98      1.60         0.97
  YS02001644YS02001647        0.74      0.74      0.98      0.04         0.01
  YS02001647YS02001649        0.74      0.74      0.87      0.01         0.01
  YS02001649YS02001757        0.86      0.87      0.94      0.15         0.07
  YS02001652YS02001649        0.69      0.69      0.87      0.01         0.01
  YS02001655YS02001652        0.50      0.50      0.66      0.01         0.01
  YS02001658YS02001655        0.30      0.30      0.50      0.01         0.01
  YS02001661YS02001658        0.10      0.10      0.30      0.01         0.01
  YS02001664YS02001661        0.01      0.01      0.15      0.01         0.01
  YS02001745YS02001748        0.01      0.01      0.23      0.01         0.01
  YS02001748YS02001751        0.27      0.27      0.38      0.01         0.01
  YS02001751YS02001754        0.38      0.38      0.57      0.01         0.01
  YS02001754YS02001757        0.61      0.61      0.94      0.01         0.01
  YS02001757CaochengTiaoxuchi        0.87      0.94      1.88      0.47         0.35
  YS02001759YS02001757        0.84      0.84      0.94      0.05         0.05
  YS02001762YS02001759        0.80      0.80      0.84      0.01         0.02
  YS02001765YS02001762        0.75      0.75      0.80      0.01         0.01
  YS02001767YS02001765        0.73      0.73      0.75      0.01         0.03
  YS02001770YS02001767        0.72      0.73      0.73      0.63         0.52
  YS02001774YS02001770        0.69      0.69      0.79      0.01         0.01
  YS02001779YS02001774        0.57      0.57      0.79      0.01         0.01
  YS02001783YS02001784        0.61      0.64      0.61      0.80         0.61
  YS02001784YS02001785        0.50      0.61      0.50      1.05         0.50
  YS02001786YS02001788        0.01      0.50      0.01      0.92         0.01
  YS02001790YS02001791        0.01      0.01      0.01      0.59         0.01
  YS02001793JiankangQianchi        0.01      0.01      7.44      0.01         0.01
  YS02001882YS02001884        0.58      0.58      0.59      0.01         0.01
  YS02001884YS02001887        0.61      0.61      0.63      0.01         0.01
  YS02001887YS02001890        0.64      0.64      0.65      0.18         0.01
  YS02001890YS02001895        0.57      0.57      0.67      0.01         0.01
  YS02001895YS02001898        0.56      0.56      0.57      0.01         0.01
  YS02001898YS02001901        0.57      0.57      0.61      0.01         0.01
  YS02001901YS02001904        0.60      0.60      0.61      0.01         0.01
  YS02001904YS02001907        0.60      0.60      0.89      0.01         0.01
  YS02001907YS02006553        1.07      1.07      1.14      0.01         0.01
  YS02001910YS02001907        0.67      0.67      0.88      0.05         0.05
  YS02001915YS02001910        0.58      0.58      0.67      0.01         0.01
  YS02001918YS02001915        0.48      0.48      0.58      0.01         0.01
  YS02001920YS02001918        0.48      0.48      0.50      0.01         0.01
  YS02001923YS02001920        0.44      0.44      0.50      0.01         0.01
  YS02001926YS02001923        0.18      0.18      0.23      0.01         0.01
  YS02001929YS02001926        0.07      0.07      0.23      0.01         0.01
  YS02006553YS02006556        0.77      0.77      0.89      0.01         0.01
  YS02006556YS02006558        0.83      0.83      0.91      0.01         0.01
  YS02006558YS02006561        0.52      0.75      0.52      1.00         0.52
  YS02006561YS02001783        0.45      0.45      0.64      0.01         0.01
  YS02163301YS02001633        1.06      1.06      1.10      0.01         0.01
  YS02163601YS02164001        1.02      1.02      1.11      0.11         0.01
  YS02164001YS02001641        1.02      1.02      1.02      0.76         0.70
  
  
  ***************
  Pumping Summary
  ***************
  
  ---------------------------------------------------------------------------------------------------------
                                                  Min       Avg       Max     Total     Power    % Time Off
                        Percent   Number of      Flow      Flow      Flow    Volume     Usage    Pump Curve
  Pump                 Utilized   Start-Ups       LPS       LPS       LPS  10^6 ltr     Kw-hr    Low   High
  ---------------------------------------------------------------------------------------------------------
  CC-R1                   20.19           5      0.00    683.00    683.00     3.971     73.33    0.0   28.1
  CC-R2                   19.07           5      0.00    683.00    683.00     3.751     69.34    0.0   26.2
  CC-S1                   49.53           8      0.00    200.00    200.00     2.853     17.00    0.0    0.0
  CC-S2                   33.30          14      0.00    200.00    200.00     1.918     11.32    0.0    0.0
  JK-R1                    8.20          12      0.00   1000.00   1000.00     2.361     24.58    0.0    0.0
  JK-R2                    3.00           8      0.00   1000.00   1000.00     0.863      7.45    0.0    0.0
  JK-S                    14.11          15      0.00    300.00    300.00     1.219     18.94    0.0    0.0
  

  Analysis begun on:  Wed Jan 15 10:33:54 2025
  Analysis ended on:  Wed Jan 15 10:33:56 2025
  Total elapsed time: 00:00:02