
  EPA STORM WATER MANAGEMENT MODEL - VERSION 5.2 (Build 5.2.4)
  PYSWMM TOOLKIT API - VERSION v1.0 (2023-11-27)
  ------------------------------------------------------------

  WARNING 04: minimum elevation drop used for Conduit WS02004404WS02004405
  WARNING 03: negative offset ignored for Link YS02001904YS02001907
  
  ****************
  Analysis Options
  ****************
  Flow Units ............... LPS
  Process Models:
    Rainfall/Runoff ........ YES
    RDII ................... NO
    Snowmelt ............... NO
    Groundwater ............ NO
    Flow Routing ........... YES
    Ponding Allowed ........ NO
    Water Quality .......... NO
  Infiltration Method ...... HORTON
  Flow Routing Method ...... DYNWAVE
  Surcharge Method ......... EXTRAN
  Starting Date ............ 08/28/2015 08:00:00
  Ending Date .............. 08/28/2015 16:00:00
  Antecedent Dry Days ...... 8.0
  Report Time Step ......... 00:01:00
  Wet Time Step ............ 00:01:00
  Dry Time Step ............ 00:01:00
  Routing Time Step ........ 30.00 sec
  Variable Time Step ....... YES
  Maximum Trials ........... 8
  Number of Threads ........ 4
  Head Tolerance ........... 0.001500 m
  
  
  **************************        Volume         Depth
  Runoff Quantity Continuity     hectare-m            mm
  **************************     ---------       -------
  Total Precipitation ......         3.574       107.739
  Evaporation Loss .........         0.000         0.000
  Infiltration Loss ........         0.106         3.182
  Surface Runoff ...........         3.436       103.582
  Final Storage ............         0.033         0.997
  Continuity Error (%) .....        -0.019
  
  
  **************************        Volume        Volume
  Flow Routing Continuity        hectare-m      10^6 ltr
  **************************     ---------     ---------
  Dry Weather Inflow .......         0.025         0.251
  Wet Weather Inflow .......         3.436        34.356
  Groundwater Inflow .......         0.000         0.000
  RDII Inflow ..............         0.000         0.000
  External Inflow ..........         0.083         0.834
  External Outflow .........         2.028        20.279
  Flooding Loss ............         1.567        15.666
  Evaporation Loss .........         0.000         0.000
  Exfiltration Loss ........         0.000         0.000
  Initial Stored Volume ....         0.243         2.431
  Final Stored Volume ......         0.197         1.975
  Continuity Error (%) .....        -0.126
  
  
  *************************
  Highest Continuity Errors
  *************************
  Node YS02001884 (4.69%)
  Node YS02001583 (-4.45%)
  
  
  ***************************
  Time-Step Critical Elements
  ***************************
  Link WS02006252WS02006251 (50.67%)
  Link WS02006238WS02006235 (12.02%)
  Link YS02001791YS02001793 (9.57%)
  Link WS02004404WS02004405 (9.13%)
  Link WS02006235WS02006234 (6.12%)
  
  
  ********************************
  Highest Flow Instability Indexes
  ********************************
  Link WS02006113WS02006111 (54)
  Link WS02006111WS02006112 (26)
  Link WS02006238WS02006235 (17)
  Link WS02006252WS02006251 (17)
  Link YS02001607YS02001610 (14)
  
  
  *********************************
  Most Frequent Nonconverging Nodes
  *********************************
  Node CC-1 (10.53%)
  Node CC-2 (10.53%)
  Node JK-1 (10.53%)
  Node JK-2 (10.53%)
  Node WSC (10.53%)
  
  
  *************************
  Routing Time Step Summary
  *************************
  Minimum Time Step           :     0.00 sec
  Average Time Step           :     1.73 sec
  Maximum Time Step           :     7.04 sec
  % of Time in Steady State   :     0.00
  Average Iterations per Step :     3.03
  % of Steps Not Converging   :    10.53
  Time Step Frequencies       :
     30.000 - 13.228 sec      :     0.00 %
     13.228 -  5.833 sec      :     7.03 %
      5.833 -  2.572 sec      :    12.97 %
      2.572 -  1.134 sec      :    23.46 %
      1.134 -  0.500 sec      :    56.53 %
  
  
  ***************************
  Subcatchment Runoff Summary
  ***************************
  
  ------------------------------------------------------------------------------------------------------------------------------
                            Total      Total      Total      Total     Imperv       Perv      Total       Total     Peak  Runoff
                           Precip      Runon       Evap      Infil     Runoff     Runoff     Runoff      Runoff   Runoff   Coeff
  Subcatchment                 mm         mm         mm         mm         mm         mm         mm    10^6 ltr      LPS
  ------------------------------------------------------------------------------------------------------------------------------
  sub60                    107.74       0.00       0.00       1.90      93.62      11.03     104.65        1.38   865.91   0.971
  sub61                    107.74       0.00       0.00       2.76      88.30      15.56     103.86        1.91  1205.61   0.964
  sub62                    107.74       0.00       0.00       1.27      97.84       7.36     105.20        2.88  1720.14   0.976
  sub63                    107.74       0.00       0.00       5.09      75.53      26.16     101.69        2.31  1390.90   0.944
  sub64                    107.74       0.00       0.00       2.57      90.38      13.59     103.97        2.50  1428.88   0.965
  sub65                    107.74       0.00       0.00       2.23      92.48      11.78     104.26        2.87  1601.77   0.968
  sub66                    107.74       0.00       0.00       6.32      75.42      24.93     100.35        4.68  2204.78   0.931
  sub67                    107.74       0.00       0.00       1.21      97.88       7.41     105.29        1.96  1294.17   0.977
  sub68                    107.74       0.00       0.00       2.28      91.48      12.80     104.28        2.87  1756.94   0.968
  sub69                    107.74       0.00       0.00       2.07      91.47      14.10     105.57        3.91  2128.94   0.980
  sub70                    107.74       0.00       0.00       6.91      70.94      29.72     100.67        2.91  1240.64   0.934
  sub71                    107.74       0.00       0.00       1.30      97.80       7.32     105.12        2.75  1541.45   0.976
  sub72                    107.74       0.00       0.00       1.16      98.80       6.39     105.18        1.45   757.72   0.976
  
  
  ******************
  Node Depth Summary
  ******************
  
  ---------------------------------------------------------------------------------
                                 Average  Maximum  Maximum  Time of Max    Reported
                                   Depth    Depth      HGL   Occurrence   Max Depth
  Node                 Type       Meters   Meters   Meters  days hr:min      Meters
  ---------------------------------------------------------------------------------
  WS02003060           JUNCTION     0.25     0.38     5.32     0  02:42        0.38
  WS02003066           JUNCTION     0.21     0.30     5.85     0  02:42        0.30
  WS02003067           JUNCTION     0.53     0.70     6.02     0  02:42        0.70
  WS02003069           JUNCTION     0.28     0.43     5.01     0  02:43        0.43
  WS02003072           JUNCTION     0.35     0.50     4.87     0  02:44        0.50
  WS02003073           JUNCTION     0.20     0.30     4.36     0  02:44        0.30
  WS02004401           JUNCTION     0.61     0.85     6.85     0  02:39        0.85
  WS02004402           JUNCTION     0.65     0.88     6.84     0  02:20        0.88
  WS02004403           JUNCTION     0.67     0.89     6.82     0  02:40        0.89
  WS02004404           JUNCTION     0.75     0.96     6.81     0  02:21        0.96
  WS02004405           JUNCTION     0.74     0.96     6.81     0  02:21        0.96
  WS02004406           JUNCTION     0.75     0.96     6.79     0  02:21        0.96
  WS02004407           JUNCTION     0.19     0.30     6.61     0  02:40        0.30
  WS02004409           JUNCTION     0.42     0.67     6.44     0  02:40        0.67
  WS02004410           JUNCTION     0.45     0.68     6.40     0  02:41        0.68
  WS02004411           JUNCTION     0.47     0.69     6.37     0  02:41        0.69
  WS02004412           JUNCTION     0.49     0.70     6.34     0  02:42        0.70
  WS02004413           JUNCTION     0.65     0.86     6.33     0  02:41        0.86
  WS02006109           JUNCTION     0.68     1.23     7.85     0  02:46        1.00
  WS02006110           JUNCTION     0.68     1.28     7.87     0  02:44        0.95
  WS02006111           JUNCTION     0.19     0.29     6.99     0  03:28        0.29
  WS02006112           JUNCTION     0.77     1.07     6.95     0  02:12        1.05
  WS02006113           JUNCTION     0.29     0.46     7.35     0  03:28        0.46
  WS02006115           JUNCTION     0.50     0.75     6.89     0  02:37        0.75
  WS02006116           JUNCTION     0.58     0.83     6.87     0  02:20        0.83
  WS02006228           JUNCTION     0.67     1.47     8.12     0  02:46        1.10
  WS02006229           JUNCTION     0.65     1.54     8.23     0  02:46        1.13
  WS02006230           JUNCTION     0.65     1.85     8.60     0  02:46        1.26
  WS02006231           JUNCTION     0.45     1.48     8.60     0  02:46        1.45
  WS02006232           JUNCTION     0.59     2.05     9.08     0  02:24        2.05
  WS02006234           JUNCTION     0.51     1.96     9.12     0  02:24        1.96
  WS02006235           JUNCTION     0.55     2.00     9.16     0  02:24        2.00
  WS02006238           JUNCTION     0.58     2.15     9.29     0  02:24        2.15
  WS02006239           JUNCTION     0.55     2.03     9.24     0  02:24        2.03
  WS02006240           JUNCTION     0.52     2.10     9.39     0  02:24        2.10
  WS02006242           JUNCTION     0.59     1.55     8.82     0  02:04        1.55
  WS02006243           JUNCTION     0.49     1.48     8.90     0  02:04        1.48
  WS02006245           JUNCTION     0.49     1.56     9.04     0  02:24        1.56
  WS02006247           JUNCTION     0.52     1.47     8.97     0  02:24        1.47
  WS02006248           JUNCTION     0.47     1.10     8.69     0  01:47        1.10
  WS02006249           JUNCTION     0.51     1.09     8.69     0  01:47        1.09
  WS02006251           JUNCTION     0.50     1.52     9.19     0  01:48        1.21
  WS02006252           JUNCTION     0.38     1.50     9.74     0  00:00        0.86
  WS02006256           JUNCTION     0.96     2.35     9.28     0  00:00        2.35
  WSF200               JUNCTION     0.18     0.29     5.52     0  02:42        0.29
  YS02001580           JUNCTION     0.11     1.05     9.59     0  01:44        0.89
  YS02001583           JUNCTION     0.15     1.04     9.53     0  01:44        0.90
  YS02001586           JUNCTION     0.23     1.13     9.30     0  01:44        1.13
  YS02001590           JUNCTION     0.33     1.40     9.26     0  01:44        1.40
  YS02001593           JUNCTION     0.26     1.36     9.22     0  01:44        1.29
  YS02001596           JUNCTION     0.35     1.77     9.19     0  02:08        1.77
  YS02001600           JUNCTION     0.41     1.87     9.00     0  01:44        1.87
  YS02001601           JUNCTION     0.60     2.06     8.90     0  01:43        2.06
  YS02001602           JUNCTION     0.51     1.87     8.77     0  01:44        1.87
  YS02001605           JUNCTION     0.48     1.78     8.68     0  01:49        1.78
  YS02001607           JUNCTION     0.47     1.67     8.52     0  02:08        1.65
  YS02001610           JUNCTION     0.52     1.68     8.48     0  01:44        1.68
  YS02001613           JUNCTION     0.47     1.70     8.54     0  01:53        1.70
  YS02001616           JUNCTION     0.40     1.61     8.52     0  01:57        1.61
  YS02001619           JUNCTION     0.38     1.61     8.54     0  01:49        1.61
  YS02001622           JUNCTION     0.37     1.62     8.52     0  01:53        1.62
  YS02001625           JUNCTION     0.64     1.78     8.38     0  01:48        1.78
  YS02001629           JUNCTION     0.49     1.85     8.40     0  01:49        1.85
  YS02001633           JUNCTION     0.58     2.08     8.53     0  02:08        2.07
  YS02001641           JUNCTION     0.56     2.10     8.54     0  02:08        1.95
  YS02001644           JUNCTION     0.56     1.92     8.35     0  01:52        1.92
  YS02001647           JUNCTION     0.35     1.82     8.43     0  02:08        1.77
  YS02001649           JUNCTION     0.40     2.05     8.44     0  02:08        2.02
  YS02001652           JUNCTION     0.29     1.92     8.51     0  02:01        1.92
  YS02001655           JUNCTION     0.23     1.99     8.84     0  01:50        1.77
  YS02001658           JUNCTION     0.17     1.58     8.72     0  02:01        1.58
  YS02001661           JUNCTION     0.19     1.42     8.82     0  02:01        1.42
  YS02001664           JUNCTION     0.07     1.00     8.92     0  02:01        0.97
  YS02001745           JUNCTION     0.09     1.03     8.55     0  02:00        1.03
  YS02001748           JUNCTION     0.17     1.47     8.54     0  02:08        1.42
  YS02001751           JUNCTION     0.21     1.62     8.50     0  01:51        1.57
  YS02001754           JUNCTION     0.27     1.82     8.43     0  02:01        1.82
  YS02001757           JUNCTION     0.42     2.15     8.41     0  02:08        2.11
  YS02001759           JUNCTION     0.36     2.21     8.57     0  02:08        2.12
  YS02001762           JUNCTION     0.35     2.15     8.55     0  02:08        2.08
  YS02001765           JUNCTION     0.33     2.10     8.55     0  02:08        2.02
  YS02001767           JUNCTION     0.33     2.03     8.52     0  02:08        1.97
  YS02001770           JUNCTION     0.34     1.95     8.44     0  01:58        1.95
  YS02001774           JUNCTION     0.41     2.03     8.45     0  02:08        2.00
  YS02001779           JUNCTION     0.25     1.68     8.37     0  01:49        1.68
  YS02001783           JUNCTION     0.25     1.40     7.54     0  02:08        1.26
  YS02001784           JUNCTION     0.26     1.21     7.27     0  02:08        1.15
  YS02001786           JUNCTION     0.22     0.95     6.98     0  02:08        0.88
  YS02001788           JUNCTION     0.16     0.63     6.61     0  02:00        0.62
  YS02001790           JUNCTION     0.19     0.73     6.37     0  01:58        0.72
  YS02001791           JUNCTION     0.12     0.44     5.91     0  02:00        0.44
  YS02001793           JUNCTION     0.06     0.30     5.13     0  01:53        0.28
  YS02001882           JUNCTION     0.33     1.83     8.55     0  02:08        1.83
  YS02001884           JUNCTION     0.42     1.93     8.55     0  02:08        1.93
  YS02001887           JUNCTION     0.50     1.97     8.51     0  02:08        1.92
  YS02001890           JUNCTION     0.53     1.81     8.32     0  01:50        1.81
  YS02001895           JUNCTION     0.29     1.71     8.45     0  02:24        1.71
  YS02001898           JUNCTION     0.30     1.77     8.51     0  02:08        1.77
  YS02001901           JUNCTION     0.42     1.78     8.39     0  02:08        1.78
  YS02001904           JUNCTION     0.40     1.67     8.30     0  01:53        1.67
  YS02001907           JUNCTION     0.73     1.96     8.25     0  01:49        1.96
  YS02001910           JUNCTION     0.53     2.01     8.52     0  02:00        2.01
  YS02001915           JUNCTION     0.33     2.00     8.72     0  01:59        2.00
  YS02001918           JUNCTION     0.20     1.81     8.88     0  01:50        1.73
  YS02001920           JUNCTION     0.27     2.09     9.10     0  01:50        1.82
  YS02001923           JUNCTION     0.15     2.01     9.27     0  01:50        1.60
  YS02001926           JUNCTION     0.18     1.90     9.35     0  01:50        1.45
  YS02001929           JUNCTION     0.11     1.78     9.47     0  01:50        1.24
  YS02006553           JUNCTION     0.73     2.19     8.47     0  02:08        2.03
  YS02006556           JUNCTION     0.70     2.39     8.70     0  02:08        2.01
  YS02006558           JUNCTION     0.74     2.46     8.73     0  02:08        2.11
  YS02006561           JUNCTION     0.16     1.20     7.86     0  02:08        0.92
  YS02163301           JUNCTION     0.52     1.99     8.51     0  02:08        1.94
  YS02163601           JUNCTION     0.62     2.08     8.48     0  02:08        2.05
  YS02164001           JUNCTION     0.55     2.10     8.56     0  02:08        1.95
  CC-1                 OUTFALL      0.00     0.00     0.00     0  00:00        0.00
  CC-2                 OUTFALL      0.00     0.00     0.00     0  00:00        0.00
  JK-1                 OUTFALL      0.00     0.00     0.00     0  00:00        0.00
  JK-2                 OUTFALL      0.00     0.00     0.00     0  00:00        0.00
  WSC                  OUTFALL      0.20     0.30     0.97     0  02:44        0.30
  CC-storage           STORAGE      0.95     1.92     7.42     0  02:39        1.92
  JK-storage           STORAGE      2.99     4.23     5.03     0  02:15        4.21
  
  
  *******************
  Node Inflow Summary
  *******************
  
  -------------------------------------------------------------------------------------------------
                                  Maximum  Maximum                  Lateral       Total        Flow
                                  Lateral    Total  Time of Max      Inflow      Inflow     Balance
                                   Inflow   Inflow   Occurrence      Volume      Volume       Error
  Node                 Type           LPS      LPS  days hr:min    10^6 ltr    10^6 ltr     Percent
  -------------------------------------------------------------------------------------------------
  WS02003060           JUNCTION     16.53   552.50     0  02:42       0.476         6.4       0.035
  WS02003066           JUNCTION      0.00   535.83     0  02:42           0        5.93       0.023
  WS02003067           JUNCTION      0.00   535.79     0  02:42           0        5.93       0.070
  WS02003069           JUNCTION      0.32   552.76     0  02:43     0.00922        6.41       0.062
  WS02003072           JUNCTION      0.00   552.65     0  02:43           0         6.4       0.110
  WS02003073           JUNCTION      1.82   554.39     0  02:44      0.0524        6.45       0.091
  WS02004401           JUNCTION      0.00   538.16     0  02:13           0        6.03       0.166
  WS02004402           JUNCTION      0.00   536.97     0  02:37           0        6.02       0.170
  WS02004403           JUNCTION      0.00   536.68     0  02:21           0        6.01       0.166
  WS02004404           JUNCTION      0.16   536.61     0  02:21     0.00467           6       0.138
  WS02004405           JUNCTION      0.04   536.63     0  02:21      0.0011           6       0.207
  WS02004406           JUNCTION      0.00   536.73     0  02:21           0        5.98       0.343
  WS02004407           JUNCTION      0.00   536.40     0  02:21           0        5.96       0.018
  WS02004409           JUNCTION      0.00   536.31     0  02:40           0        5.96       0.044
  WS02004410           JUNCTION      0.00   536.11     0  02:40           0        5.96       0.072
  WS02004411           JUNCTION      0.00   535.92     0  02:41           0        5.96       0.092
  WS02004412           JUNCTION      0.00   535.89     0  02:41           0        5.95       0.124
  WS02004413           JUNCTION      0.00   535.90     0  02:41           0        5.94       0.221
  WS02006109           JUNCTION      1.23   577.47     0  02:24      0.0354        6.08       0.157
  WS02006110           JUNCTION      0.00   579.93     0  02:24           0        6.07       0.105
  WS02006111           JUNCTION      0.00   563.83     0  03:28           0        6.06       0.012
  WS02006112           JUNCTION      0.00   543.54     0  03:28           0        6.06       0.288
  WS02006113           JUNCTION      0.00   578.16     0  02:24           0        6.06       0.027
  WS02006115           JUNCTION      0.00   551.46     0  02:47           0        6.04       0.105
  WS02006116           JUNCTION      0.00   539.76     0  02:26           0        6.03       0.091
  WS02006228           JUNCTION      0.00   572.44     0  02:24           0        6.05       0.063
  WS02006229           JUNCTION      0.00   570.32     0  02:24           0        6.05       0.080
  WS02006230           JUNCTION     10.28   594.69     0  02:46       0.296        6.05       0.055
  WS02006231           JUNCTION      0.00   598.71     0  02:04           0        5.76      -0.013
  WS02006232           JUNCTION      0.00   596.71     0  02:04           0        5.77       0.161
  WS02006234           JUNCTION      0.00   586.47     0  02:04           0        5.76      -0.136
  WS02006235           JUNCTION      0.00   568.99     0  02:04           0        5.82       0.118
  WS02006238           JUNCTION      0.00   423.31     0  02:50           0        4.87      -0.118
  WS02006239           JUNCTION      0.00   422.89     0  02:40           0        4.84      -0.141
  WS02006240           JUNCTION      0.00   420.18     0  02:40           0        4.81      -0.048
  WS02006242           JUNCTION      0.00   420.75     0  02:40           0        4.79      -0.022
  WS02006243           JUNCTION      0.00   419.93     0  02:40           0        4.77      -0.134
  WS02006245           JUNCTION      0.00   419.01     0  02:40           0        4.77       0.146
  WS02006247           JUNCTION      0.00   419.86     0  02:00           0        4.77      -0.010
  WS02006248           JUNCTION      0.00   420.45     0  02:00           0        4.77       0.023
  WS02006249           JUNCTION      0.00   459.02     0  00:00           0        5.03       0.133
  WS02006251           JUNCTION      0.08   405.13     0  03:05     0.00222        5.03       0.017
  WS02006252           JUNCTION      0.00   400.00     0  00:00           0        5.02      -0.071
  WS02006256           JUNCTION      0.00   300.00     0  00:00           0        1.44      -0.627
  WSF200               JUNCTION      0.00   535.86     0  02:42           0        5.92       0.007
  YS02001580           JUNCTION      0.00    74.44     0  01:44           0     0.00429       1.851
  YS02001583           JUNCTION      0.00   119.39     0  01:43           0      0.0157      -4.262
  YS02001586           JUNCTION   1240.64  1240.71     0  02:04        2.91        2.92       0.032
  YS02001590           JUNCTION      0.00   318.21     0  02:24           0         1.8      -0.021
  YS02001593           JUNCTION      0.00   318.07     0  02:25           0         1.8       0.000
  YS02001596           JUNCTION      0.00   318.09     0  02:39           0         1.8      -0.013
  YS02001600           JUNCTION      0.00   318.43     0  02:08           0         1.8       0.015
  YS02001601           JUNCTION   2128.94  2446.46     0  02:02        3.91        5.71       0.016
  YS02001602           JUNCTION      0.00   498.36     0  01:43           0        2.84       0.018
  YS02001605           JUNCTION      0.00   498.13     0  01:43           0        2.63       0.022
  YS02001607           JUNCTION      0.00   497.68     0  01:43           0        2.63       0.073
  YS02001610           JUNCTION      0.00   953.73     0  02:08           0        3.37       0.071
  YS02001613           JUNCTION      0.00   618.80     0  02:08           0        2.53       0.066
  YS02001616           JUNCTION      0.00   623.75     0  02:08           0        2.54       0.014
  YS02001619           JUNCTION   2204.78  2204.78     0  02:03        4.68        6.47       0.001
  YS02001622           JUNCTION      0.00  1053.93     0  02:06           0        5.51      -0.000
  YS02001625           JUNCTION      0.00  1505.42     0  02:07           0        6.06       0.177
  YS02001629           JUNCTION      0.00   912.33     0  01:48           0        4.16       0.003
  YS02001633           JUNCTION   1601.97  1601.97     0  02:02        2.88        6.31       0.056
  YS02001641           JUNCTION      0.00  1305.88     0  01:48           0        5.58       0.049
  YS02001644           JUNCTION   1428.92  2646.17     0  02:02         2.5         8.2       0.040
  YS02001647           JUNCTION      0.00  1675.20     0  01:49           0        6.55       0.005
  YS02001649           JUNCTION      0.00  1865.35     0  01:48           0        8.74       0.003
  YS02001652           JUNCTION      0.00  1401.43     0  02:01           0        2.31      -0.054
  YS02001655           JUNCTION      0.15  1401.17     0  02:01     0.00443        2.31      -0.007
  YS02001658           JUNCTION      0.00  1400.42     0  02:01           0        2.31      -0.015
  YS02001661           JUNCTION      0.00  1400.09     0  02:01           0        2.31       0.007
  YS02001664           JUNCTION   1390.90  1390.90     0  02:02        2.31        2.31      -0.008
  YS02001745           JUNCTION    865.92   865.92     0  02:01        1.38        1.38       0.106
  YS02001748           JUNCTION      0.04   875.19     0  02:01      0.0013        1.38      -0.143
  YS02001751           JUNCTION      0.01   874.64     0  02:01    0.000317        1.38       0.012
  YS02001754           JUNCTION      0.26   874.61     0  02:01     0.00749        1.39      -0.104
  YS02001757           JUNCTION      0.00  3245.26     0  01:59           0        13.9       0.012
  YS02001759           JUNCTION   1205.65  1403.64     0  01:59        1.91        3.93      -0.007
  YS02001762           JUNCTION      0.00   731.51     0  01:54           0        2.03       0.008
  YS02001765           JUNCTION      0.00   731.35     0  01:54           0        2.03       0.004
  YS02001767           JUNCTION      0.54   731.99     0  01:54      0.0154        2.03       0.007
  YS02001770           JUNCTION   1720.29  1720.29     0  02:02        2.89        2.93      -0.007
  YS02001774           JUNCTION      0.00   852.03     0  02:05           0       0.752       0.178
  YS02001779           JUNCTION      0.01   851.71     0  02:06    0.000144       0.705      -0.065
  YS02001783           JUNCTION      0.00  1179.77     0  02:01           0        5.54       0.003
  YS02001784           JUNCTION      1.06  1180.20     0  02:01      0.0305        5.57       0.009
  YS02001786           JUNCTION      0.06  1179.80     0  02:01     0.00162        5.57       0.014
  YS02001788           JUNCTION      0.07  1181.31     0  02:01     0.00204        5.57       0.005
  YS02001790           JUNCTION      0.15  1191.95     0  02:00     0.00446        5.58       0.015
  YS02001791           JUNCTION      0.00  1295.28     0  01:59           0        5.58      -0.027
  YS02001793           JUNCTION      0.00  1270.09     0  02:04           0        5.58       0.004
  YS02001882           JUNCTION      0.00    30.77     0  01:47           0      0.0142       4.049
  YS02001884           JUNCTION      0.00    39.28     0  01:43           0      0.0508       4.920
  YS02001887           JUNCTION   1294.62  1299.13     0  02:01        1.97        2.01       0.218
  YS02001890           JUNCTION      0.00  1299.69     0  02:01           0        1.96       0.252
  YS02001895           JUNCTION      0.00   520.36     0  02:08           0        1.58       0.104
  YS02001898           JUNCTION      0.00   518.39     0  02:08           0        1.58       0.002
  YS02001901           JUNCTION      0.00   518.33     0  02:00           0        1.58       0.212
  YS02001904           JUNCTION      0.00   522.89     0  02:08           0        1.59       0.165
  YS02001907           JUNCTION      0.00  3094.40     0  02:02           0        5.99       0.303
  YS02001910           JUNCTION      0.00  1993.12     0  02:04           0        4.21       0.173
  YS02001915           JUNCTION   1541.47  2299.26     0  02:02        2.75         4.3       0.032
  YS02001918           JUNCTION      0.00   761.81     0  02:03           0        1.57       0.013
  YS02001920           JUNCTION      2.87   761.51     0  02:03      0.0827        1.56       0.055
  YS02001923           JUNCTION      0.04   758.06     0  02:03     0.00109        1.47      -0.022
  YS02001926           JUNCTION      0.05   757.79     0  02:03      0.0015        1.45       0.005
  YS02001929           JUNCTION    757.72   757.72     0  02:03        1.45        1.45      -0.039
  YS02006553           JUNCTION      0.00   795.43     0  02:28           0        3.09       0.388
  YS02006556           JUNCTION      0.00   796.06     0  02:28           0         3.1       0.258
  YS02006558           JUNCTION   1757.82  1757.82     0  02:02        2.89        5.77       0.062
  YS02006561           JUNCTION      0.00  1181.05     0  02:08           0        5.54      -0.004
  YS02163301           JUNCTION      0.00   912.17     0  01:48           0        4.16       0.040
  YS02163601           JUNCTION      0.11  1307.31     0  01:48     0.00317        5.57       0.090
  YS02164001           JUNCTION      0.00  1306.10     0  01:48           0        5.57       0.045
  CC-1                 OUTFALL       0.00   683.00     0  00:00           0        4.89       0.000
  CC-2                 OUTFALL       0.00   683.00     0  00:00           0        4.84       0.000
  JK-1                 OUTFALL       0.00  1000.00     0  00:00           0        2.29       0.000
  JK-2                 OUTFALL       0.00  1000.00     0  00:00           0        1.82       0.000
  WSC                  OUTFALL       0.00   554.29     0  02:44           0        6.44       0.000
  CC-storage           STORAGE       0.00  3244.41     0  02:00           0        16.2      -0.171
  JK-storage           STORAGE       0.00  1290.98     0  02:00           0        5.73       0.099
  
  
  **********************
  Node Surcharge Summary
  **********************
  
  Surcharging occurs when water rises above the top of the highest conduit.
  ---------------------------------------------------------------------
                                               Max. Height   Min. Depth
                                   Hours       Above Crown    Below Rim
  Node                 Type      Surcharged         Meters       Meters
  ---------------------------------------------------------------------
  WS02006109           JUNCTION        2.15          0.415        1.405
  WS02006110           JUNCTION        0.82          0.372        1.478
  WS02006112           JUNCTION        0.91          0.070        1.610
  WS02006228           JUNCTION        2.14          0.637        1.563
  WS02006229           JUNCTION        2.15          0.736        1.714
  WS02006230           JUNCTION        0.84          0.773        0.797
  WS02006231           JUNCTION        1.00          0.767        0.763
  WS02006232           JUNCTION        2.22          1.345        0.135
  WS02006234           JUNCTION        1.38          1.240        0.000
  WS02006235           JUNCTION        2.10          1.290        0.000
  WS02006238           JUNCTION        2.17          1.430        0.000
  WS02006239           JUNCTION        2.13          1.290        0.000
  WS02006240           JUNCTION        2.15          1.390        0.000
  WS02006242           JUNCTION        2.25          0.820        0.000
  WS02006243           JUNCTION        2.16          0.770        0.000
  WS02006245           JUNCTION        2.16          0.850        0.000
  WS02006247           JUNCTION        2.18          0.760        0.000
  WS02006248           JUNCTION        2.14          0.380        0.000
  WS02006249           JUNCTION        2.16          0.390        0.000
  WS02006251           JUNCTION        1.09          0.490        0.690
  WS02006252           JUNCTION        2.68          1.100        0.000
  WS02006256           JUNCTION        5.88          2.050        0.000
  YS02001580           JUNCTION        1.04          0.450        0.000
  YS02001583           JUNCTION        1.05          0.397        0.103
  YS02001586           JUNCTION        1.25          0.510        0.000
  YS02001590           JUNCTION        1.34          0.750        0.000
  YS02001593           JUNCTION        1.35          0.737        0.103
  YS02001596           JUNCTION        1.46          1.042        0.028
  YS02001600           JUNCTION        1.59          1.190        0.000
  YS02001601           JUNCTION        1.86          1.440        0.000
  YS02001602           JUNCTION        1.78          1.270        0.000
  YS02001605           JUNCTION        1.74          1.180        0.000
  YS02001607           JUNCTION        1.35          0.670        0.010
  YS02001610           JUNCTION        1.37          0.680        0.000
  YS02001613           JUNCTION        1.34          0.700        0.000
  YS02001616           JUNCTION        1.31          0.610        0.000
  YS02001619           JUNCTION        1.29          0.610        0.000
  YS02001622           JUNCTION        1.29          0.620        0.000
  YS02001625           JUNCTION        1.45          0.780        0.000
  YS02001629           JUNCTION        1.24          0.470        0.000
  YS02001633           JUNCTION        1.49          1.060        0.000
  YS02001641           JUNCTION        1.44          1.100        0.000
  YS02001644           JUNCTION        1.42          0.920        0.000
  YS02001647           JUNCTION        1.22          0.821        0.079
  YS02001649           JUNCTION        1.33          1.050        0.000
  YS02001652           JUNCTION        1.17          0.886        0.244
  YS02001655           JUNCTION        0.93          0.986        0.214
  YS02001658           JUNCTION        0.53          0.580        0.720
  YS02001661           JUNCTION        0.19          0.349        1.041
  YS02001745           JUNCTION        0.02          0.031        1.319
  YS02001748           JUNCTION        0.41          0.386        0.804
  YS02001751           JUNCTION        0.76          0.624        0.576
  YS02001754           JUNCTION        1.08          0.769        0.381
  YS02001757           JUNCTION        1.39          1.152        0.058
  YS02001759           JUNCTION        1.31          1.210        0.000
  YS02001762           JUNCTION        1.29          1.150        0.000
  YS02001765           JUNCTION        1.24          1.100        0.000
  YS02001767           JUNCTION        1.23          1.030        0.000
  YS02001770           JUNCTION        1.21          0.920        0.000
  YS02001774           JUNCTION        1.28          1.029        0.021
  YS02001779           JUNCTION        1.06          0.680        0.000
  YS02001783           JUNCTION        0.87          0.604        0.996
  YS02001784           JUNCTION        0.84          0.406        1.084
  YS02001786           JUNCTION        0.70          0.151        1.279
  YS02001882           JUNCTION        0.79          0.830        0.000
  YS02001884           JUNCTION        0.80          0.870        0.000
  YS02001887           JUNCTION        0.85          0.923        0.027
  YS02001890           JUNCTION        0.87          0.760        0.000
  YS02001895           JUNCTION        0.78          0.706        0.044
  YS02001898           JUNCTION        0.77          0.740        0.000
  YS02001901           JUNCTION        0.83          0.779        0.091
  YS02001904           JUNCTION        0.82          0.673        0.177
  YS02001907           JUNCTION        1.18          0.950        0.000
  YS02001910           JUNCTION        0.91          1.014        0.086
  YS02001915           JUNCTION        0.79          1.000        0.000
  YS02001918           JUNCTION        0.68          0.810        0.000
  YS02001920           JUNCTION        0.69          1.090        0.050
  YS02001923           JUNCTION        0.27          0.795        0.025
  YS02001926           JUNCTION        0.32          0.900        0.000
  YS02001929           JUNCTION        0.16          0.780        0.000
  YS02006553           JUNCTION        1.22          1.190        0.000
  YS02006556           JUNCTION        1.04          1.350        0.000
  YS02006558           JUNCTION        1.03          1.363        0.037
  YS02006561           JUNCTION        0.64          0.395        0.755
  YS02163301           JUNCTION        1.46          0.991        0.039
  YS02163601           JUNCTION        1.52          1.080        0.000
  YS02164001           JUNCTION        1.44          1.100        0.000
  
  
  *********************
  Node Flooding Summary
  *********************
  
  Flooding refers to all water that overflows a node, whether it ponds or not.
  --------------------------------------------------------------------------
                                                             Total   Maximum
                                 Maximum   Time of Max       Flood    Ponded
                        Hours       Rate    Occurrence      Volume     Depth
  Node                 Flooded       LPS   days hr:min    10^6 ltr    Meters
  --------------------------------------------------------------------------
  WS02006234              0.01      2.99      0  02:24       0.000     0.000
  WS02006235              0.01      6.44      0  02:24       0.000     0.000
  WS02006238              0.01      5.68      0  02:24       0.000     0.000
  WS02006239              0.01      2.32      0  02:24       0.000     0.000
  WS02006240              0.01      3.05      0  02:24       0.000     0.000
  WS02006242              0.01     18.49      0  02:24       0.000     0.000
  WS02006243              0.01      3.02      0  02:04       0.000     0.000
  WS02006245              0.01      1.19      0  02:24       0.000     0.000
  WS02006247              0.01      1.04      0  02:24       0.000     0.000
  WS02006248              0.02     18.31      0  02:30       0.000     0.000
  WS02006249              1.05    102.38      0  01:48       0.252     0.000
  WS02006252              0.01    245.63      0  00:00       0.000     0.000
  WS02006256              1.33    293.19      0  00:00       0.460     0.000
  YS02001580              0.01     48.45      0  01:44       0.000     0.000
  YS02001586              0.84    923.20      0  02:04       1.107     0.000
  YS02001590              0.01     12.69      0  01:44       0.000     0.000
  YS02001600              0.01      1.46      0  01:44       0.000     0.000
  YS02001601              1.16   2048.59      0  02:02       2.864     0.000
  YS02001602              1.03     63.36      0  02:08       0.212     0.000
  YS02001605              0.01      0.89      0  02:08       0.000     0.000
  YS02001610              0.92    953.48      0  02:07       1.574     0.000
  YS02001613              0.01      0.64      0  01:53       0.000     0.000
  YS02001616              0.05     22.34      0  02:24       0.000     0.000
  YS02001619              0.20    537.47      0  02:03       0.221     0.000
  YS02001622              0.01      0.43      0  01:53       0.000     0.000
  YS02001625              0.90   1505.20      0  02:07       2.616     0.000
  YS02001629              0.29    410.16      0  02:02       0.182     0.000
  YS02001633              0.01     24.68      0  02:08       0.000     0.000
  YS02001641              0.01     14.63      0  02:08       0.000     0.000
  YS02001644              0.42   2645.98      0  02:02       1.762     0.000
  YS02001649              0.01      9.19      0  02:08       0.000     0.000
  YS02001759              0.01     16.31      0  02:08       0.000     0.000
  YS02001762              0.01     36.55      0  02:08       0.000     0.000
  YS02001765              0.01     32.24      0  02:08       0.000     0.000
  YS02001767              0.01     30.10      0  02:08       0.000     0.000
  YS02001770              0.14    699.90      0  02:02       0.190     0.000
  YS02001779              0.37    851.45      0  02:06       0.685     0.000
  YS02001882              0.01     19.71      0  02:08       0.000     0.000
  YS02001884              0.01     10.74      0  02:08       0.000     0.000
  YS02001890              0.33    782.12      0  02:01       0.376     0.000
  YS02001898              0.01      1.10      0  02:24       0.000     0.000
  YS02001907              0.60   3094.15      0  02:02       3.091     0.000
  YS02001915              0.10    306.78      0  02:02       0.070     0.000
  YS02001918              0.01     80.78      0  01:50       0.000     0.000
  YS02001926              0.01     47.18      0  01:50       0.000     0.000
  YS02001929              0.01     36.81      0  01:50       0.000     0.000
  YS02006553              0.01     14.89      0  02:08       0.000     0.000
  YS02006556              0.01     66.96      0  02:08       0.000     0.000
  YS02163601              0.01     52.84      0  02:08       0.000     0.000
  YS02164001              0.01     59.73      0  02:08       0.000     0.000
  
  
  **********************
  Storage Volume Summary
  **********************
  
  ------------------------------------------------------------------------------------------------
                         Average    Avg   Evap  Exfil     Maximum    Max    Time of Max    Maximum
                          Volume   Pcnt   Pcnt   Pcnt      Volume   Pcnt     Occurrence    Outflow
  Storage Unit           1000 m³   Full   Loss   Loss     1000 m³   Full    days hr:min        LPS
  ------------------------------------------------------------------------------------------------
  CC-storage               2.639   41.2    0.0    0.0       5.360   83.6       0  02:39    1783.53
  JK-storage               0.150   51.6    0.0    0.0       0.212   72.9       0  02:15    2300.00
  
  
  ***********************
  Outfall Loading Summary
  ***********************
  
  -----------------------------------------------------------
                         Flow       Avg       Max       Total
                         Freq      Flow      Flow      Volume
  Outfall Node           Pcnt       LPS       LPS    10^6 ltr
  -----------------------------------------------------------
  CC-1                  23.26    683.00    683.00       4.887
  CC-2                  22.93    683.00    683.00       4.845
  JK-1                   8.51   1000.00   1000.00       2.286
  JK-2                   6.41   1000.00   1000.00       1.818
  WSC                   99.96    281.80    554.29       6.443
  -----------------------------------------------------------
  System                32.22   3647.80   3919.62      20.279
  
  
  ********************
  Link Flow Summary
  ********************
  
  -----------------------------------------------------------------------------
                                 Maximum  Time of Max   Maximum    Max/    Max/
                                  |Flow|   Occurrence   |Veloc|    Full    Full
  Link                 Type          LPS  days hr:min     m/sec    Flow   Depth
  -----------------------------------------------------------------------------
  1                    CONDUIT    554.29     0  02:44      2.83    0.19    0.30
  WS02003060WS02003069 CONDUIT    552.44     0  02:43      1.64    0.22    0.34
  WS02003066WSF200     CONDUIT    535.86     0  02:42      2.85    0.09    0.22
  WS02003067WS02003066 CONDUIT    535.83     0  02:42      1.21    0.17    0.42
  WS02003069WS02003072 CONDUIT    552.65     0  02:43      1.37    0.27    0.39
  WS02003072WS02003073 CONDUIT    552.57     0  02:44      1.43    1.19    0.37
  WS02004401WS02004402 CONDUIT    536.97     0  02:37      0.98    0.64    0.86
  WS02004402WS02004403 CONDUIT    536.68     0  02:21      0.97    0.77    0.88
  WS02004403WS02004404 CONDUIT    536.45     0  02:21      0.92    0.39    0.93
  WS02004404WS02004405 CONDUIT    536.59     0  02:21      1.08    5.26    0.96
  WS02004405WS02004406 CONDUIT    536.73     0  02:21      0.99    1.06    0.96
  WS02004406WS02004407 CONDUIT    536.40     0  02:21      1.04    0.24    0.63
  WS02004407WS02004409 CONDUIT    536.31     0  02:40      1.55    0.19    0.48
  WS02004409WS02004410 CONDUIT    536.11     0  02:40      1.03    0.69    0.67
  WS02004410WS02004411 CONDUIT    535.92     0  02:41      0.97    0.73    0.69
  WS02004411WS02004412 CONDUIT    535.89     0  02:41      0.92    0.76    0.69
  WS02004412WS02004413 CONDUIT    535.90     0  02:41      0.82    0.36    0.78
  WS02004413WS02003067 CONDUIT    535.79     0  02:42      1.11    0.23    0.59
  WS02006109WS02006110 CONDUIT    579.93     0  02:24      1.15    1.12    1.00
  WS02006110WS02006113 CONDUIT    578.16     0  02:24      1.40    0.53    0.79
  WS02006111WS02006112 CONDUIT    543.54     0  03:28      1.81    0.26    0.67
  WS02006112WS02006115 CONDUIT    551.46     0  02:47      0.86    0.33    0.87
  WS02006113WS02006111 CONDUIT    563.83     0  03:28      2.47    0.68    0.46
  WS02006115WS02006116 CONDUIT    539.76     0  02:26      1.05    0.69    0.76
  WS02006116WS02004401 CONDUIT    538.16     0  02:13      0.98    0.74    0.84
  WS02006228WS02006109 CONDUIT    576.24     0  02:24      1.15    2.52    1.00
  WS02006229WS02006228 CONDUIT    572.44     0  02:24      1.14    1.90    1.00
  WS02006230WS02006229 CONDUIT    570.32     0  02:24      1.48   12.69    1.00
  WS02006231WS02006230 CONDUIT    584.42     0  02:46      1.60    8.86    1.00
  WS02006232WS02006231 CONDUIT    598.71     0  02:04      1.57    1.25    1.00
  WS02006234WS02006232 CONDUIT    596.71     0  02:04      1.55    1.21    1.00
  WS02006235WS02006234 CONDUIT    586.47     0  02:04      1.52    6.19    1.00
  WS02006238WS02006235 CONDUIT    424.13     0  02:45      1.45    0.95    1.00
  WS02006239WS02006238 CONDUIT    423.31     0  02:50      1.10    1.35    1.00
  WS02006240WS02006239 CONDUIT    422.89     0  02:40      1.24    1.33    1.00
  WS02006242WS02006240 CONDUIT    420.18     0  02:40      1.13    1.67    1.00
  WS02006243WS02006242 CONDUIT    420.75     0  02:40      1.40    0.90    1.00
  WS02006245WS02006243 CONDUIT    419.93     0  02:40      1.45    1.24    1.00
  WS02006247WS02006245 CONDUIT    419.01     0  02:40      1.43    3.32    1.00
  WS02006248WS02006247 CONDUIT    419.86     0  02:00      1.44    0.91    1.00
  WS02006249WS02006248 CONDUIT    420.45     0  02:00      1.36    2.30    1.00
  WS02006251WS02006249 CONDUIT    459.02     0  00:00      1.99    1.32    1.00
  WS02006252WS02006251 CONDUIT    405.06     0  03:05     24.61    1.49    1.00
  WS02006256WS02006235 CONDUIT    288.91     0  00:00      4.23    3.06    1.00
  WSF200WS02003060     CONDUIT    535.97     0  02:42      2.06    0.12    0.28
  YS02001580YS02001583 CONDUIT     74.44     0  01:44      0.53    0.29    1.00
  YS02001583YS02001586 CONDUIT    119.39     0  01:43      0.51    0.18    1.00
  YS02001586YS02001590 CONDUIT    318.21     0  02:24      1.24    0.56    1.00
  YS02001590YS02001593 CONDUIT    318.07     0  02:25      1.12    2.00    1.00
  YS02001593YS02001596 CONDUIT    318.09     0  02:39      1.71    0.50    1.00
  YS02001596YS02001600 CONDUIT    318.43     0  02:08      1.27    0.62    1.00
  YS02001600YS02001601 CONDUIT    318.10     0  02:08      1.13    0.55    1.00
  YS02001601YS02001602 CONDUIT    498.36     0  01:43      1.76    1.80    1.00
  YS02001602YS02001605 CONDUIT    498.13     0  01:43      1.76   10.54    1.00
  YS02001605YS02001607 CONDUIT    497.68     0  01:43      1.76    2.73    1.00
  YS02001607YS02001610 CONDUIT    503.40     0  01:43      0.64    0.48    1.00
  YS02001610YS02001613 CONDUIT    618.21     0  02:08      0.79    0.71    1.00
  YS02001613YS02001616 CONDUIT    618.80     0  02:08      0.79    0.53    1.00
  YS02001616YS02001619 CONDUIT    623.75     0  02:08      0.79    1.08    1.00
  YS02001619YS02001622 CONDUIT   1053.93     0  02:06      1.34    1.55    1.00
  YS02001622YS02001625 CONDUIT   1053.68     0  02:07      1.34    0.56    1.00
  YS02001625YS02001629 CONDUIT    912.33     0  01:48      1.16    0.43    1.00
  YS02001629YS02163301 CONDUIT    912.17     0  01:48      1.16    1.12    1.00
  YS02001633YS02163601 CONDUIT   1307.20     0  01:48      1.66    1.37    1.00
  YS02001641YS02001644 CONDUIT   1305.86     0  01:48      1.66    4.22    1.00
  YS02001644YS02001647 CONDUIT   1675.20     0  01:49      2.14    0.98    1.00
  YS02001647YS02001649 CONDUIT   1676.84     0  01:49      2.29    0.89    1.00
  YS02001649YS02001757 CONDUIT   1865.76     0  01:48      2.40    1.13    1.00
  YS02001652YS02001649 CONDUIT   1402.27     0  02:01      1.79    0.69    1.00
  YS02001655YS02001652 CONDUIT   1401.43     0  02:01      1.78    0.68    1.00
  YS02001658YS02001655 CONDUIT   1401.01     0  02:01      1.82    0.59    1.00
  YS02001661YS02001658 CONDUIT   1400.42     0  02:01      2.18    0.55    1.00
  YS02001664YS02001661 CONDUIT   1400.09     0  02:01      2.12    0.44    1.00
  YS02001745YS02001748 CONDUIT    875.14     0  02:01      2.03    0.34    1.00
  YS02001748YS02001751 CONDUIT    874.63     0  02:01      1.61    0.44    1.00
  YS02001751YS02001754 CONDUIT    874.35     0  02:01      1.39    0.42    1.00
  YS02001754YS02001757 CONDUIT    874.80     0  02:01      1.11    0.35    1.00
  YS02001757CaochengTiaoxuchi CONDUIT   3244.41     0  02:00      4.13    1.40    1.00
  YS02001759YS02001757 CONDUIT   1403.65     0  01:59      1.79    1.00    1.00
  YS02001762YS02001759 CONDUIT    731.71     0  01:54      0.93    0.84    1.00
  YS02001765YS02001762 CONDUIT    731.51     0  01:54      0.93    0.69    1.00
  YS02001767YS02001765 CONDUIT    731.35     0  01:54      0.93    0.92    1.00
  YS02001770YS02001767 CONDUIT    731.45     0  01:54      0.93    2.90    1.00
  YS02001774YS02001770 CONDUIT    852.03     0  02:05      1.08    0.54    1.00
  YS02001779YS02001774 CONDUIT    851.71     0  02:06      1.08    0.43    1.00
  YS02001783YS02001784 CONDUIT   1179.14     0  02:01      2.35    1.63    1.00
  YS02001784YS02001785 CONDUIT   1179.75     0  02:01      2.35    2.75    1.00
  YS02001786YS02001788 CONDUIT   1181.24     0  02:01      2.51    2.28    0.89
  YS02001788YS02001790 CONDUIT   1191.80     0  02:00      2.74    0.88    0.85
  YS02001790YS02001791 CONDUIT   1295.28     0  01:59      3.44    1.41    0.71
  YS02001791YS02001793 CONDUIT   1270.09     0  02:04      6.73    0.55    0.45
  YS02001793JiankangQianchi CONDUIT   1290.98     0  02:00      2.55    0.10    0.65
  YS02001882YS02001884 CONDUIT     30.77     0  01:47      0.18    0.04    1.00
  YS02001884YS02001887 CONDUIT     39.28     0  01:43      0.14    0.05    1.00
  YS02001887YS02001890 CONDUIT   1299.69     0  02:01      1.65    2.22    1.00
  YS02001890YS02001895 CONDUIT    520.36     0  02:08      0.66    0.24    1.00
  YS02001895YS02001898 CONDUIT    518.39     0  02:08      0.66    0.90    1.00
  YS02001898YS02001901 CONDUIT    518.33     0  02:00      0.66    0.33    1.00
  YS02001901YS02001904 CONDUIT    522.89     0  02:08      0.67    0.81    1.00
  YS02001904YS02001907 CONDUIT    538.06     0  02:08      0.69    0.19    1.00
  YS02001907YS02006553 CONDUIT    795.43     0  02:28      0.88    0.94    1.00
  YS02001910YS02001907 CONDUIT   1992.96     0  02:05      2.54    1.12    1.00
  YS02001915YS02001910 CONDUIT   1993.12     0  02:04      2.54    0.99    1.00
  YS02001918YS02001915 CONDUIT    762.05     0  02:03      0.97    0.42    1.00
  YS02001920YS02001918 CONDUIT    761.81     0  02:03      0.97    0.74    1.00
  YS02001923YS02001920 CONDUIT    758.64     0  02:03      0.97    0.34    1.00
  YS02001926YS02001923 CONDUIT    758.02     0  02:03      0.97    1.08    1.00
  YS02001929YS02001926 CONDUIT    757.74     0  02:03      1.07    0.36    1.00
  YS02006553YS02006556 CONDUIT    796.06     0  02:28      1.01    0.68    1.00
  YS02006556YS02006558 CONDUIT    797.58     0  02:28      1.02    0.63    1.00
  YS02006558YS02006561 CONDUIT   1181.05     0  02:08      4.18    2.61    1.00
  YS02006561YS02001783 CONDUIT   1179.77     0  02:01      2.35    0.61    1.00
  YS02163301YS02001633 CONDUIT    913.01     0  01:48      1.16    0.86    1.00
  YS02163601YS02164001 CONDUIT   1306.10     0  01:48      1.66    1.16    1.00
  YS02164001YS02001641 CONDUIT   1305.88     0  01:48      1.66    1.78    1.00
  CC-R1                PUMP       683.00     0  00:00              1.00
  CC-R2                PUMP       683.00     0  00:00              1.00
  CC-S1                PUMP       200.00     0  00:00              1.00
  CC-S2                PUMP       200.00     0  00:00              1.00
  JK-R1                PUMP      1000.00     0  00:00              1.00
  JK-R2                PUMP      1000.00     0  00:00              1.00
  JK-S                 PUMP       300.00     0  00:00              1.00
  
  
  ***************************
  Flow Classification Summary
  ***************************
  
  -------------------------------------------------------------------------------------
                      Adjusted    ---------- Fraction of Time in Flow Class ---------- 
                       /Actual         Up    Down  Sub   Sup   Up    Down  Norm  Inlet 
  Conduit               Length    Dry  Dry   Dry   Crit  Crit  Crit  Crit  Ltd   Ctrl  
  -------------------------------------------------------------------------------------
  1                       1.00   0.00  0.00  0.00  0.00  1.00  0.00  0.00  0.44  0.00
  WS02003060WS02003069    1.00   0.00  0.00  0.00  0.98  0.02  0.00  0.00  0.64  0.00
  WS02003066WSF200        1.00   0.13  0.00  0.00  0.00  0.87  0.00  0.00  0.75  0.00
  WS02003067WS02003066    1.00   0.10  0.02  0.00  0.88  0.00  0.00  0.00  0.00  0.00
  WS02003069WS02003072    1.00   0.00  0.00  0.00  0.99  0.01  0.00  0.00  0.70  0.00
  WS02003072WS02003073    1.00   0.00  0.00  0.00  0.00  0.00  0.00  1.00  0.00  0.00
  WS02004401WS02004402    1.00   0.02  0.00  0.00  0.98  0.00  0.00  0.00  0.00  0.00
  WS02004402WS02004403    1.00   0.02  0.00  0.00  0.97  0.00  0.00  0.00  0.00  0.00
  WS02004403WS02004404    1.00   0.00  0.03  0.00  0.97  0.00  0.00  0.00  0.00  0.00
  WS02004404WS02004405    1.00   0.00  0.00  0.00  1.00  0.00  0.00  0.00  0.00  0.00
  WS02004405WS02004406    1.00   0.00  0.00  0.00  1.00  0.00  0.00  0.00  0.00  0.00
  WS02004406WS02004407    1.00   0.00  0.05  0.00  0.95  0.00  0.00  0.00  0.00  0.00
  WS02004407WS02004409    1.00   0.05  0.00  0.00  0.94  0.01  0.00  0.00  0.94  0.00
  WS02004409WS02004410    1.00   0.05  0.00  0.00  0.95  0.00  0.00  0.00  0.03  0.00
  WS02004410WS02004411    1.00   0.05  0.00  0.00  0.95  0.00  0.00  0.00  0.01  0.00
  WS02004411WS02004412    1.00   0.05  0.00  0.00  0.95  0.00  0.00  0.00  0.00  0.00
  WS02004412WS02004413    1.00   0.05  0.00  0.00  0.94  0.00  0.00  0.00  0.01  0.00
  WS02004413WS02003067    1.00   0.06  0.04  0.00  0.00  0.00  0.90  0.00  0.00  0.00
  WS02006109WS02006110    1.00   0.00  0.01  0.00  0.98  0.00  0.01  0.00  0.00  0.00
  WS02006110WS02006113    1.00   0.01  0.01  0.00  0.98  0.00  0.00  0.00  0.00  0.00
  WS02006111WS02006112    1.00   0.02  0.00  0.00  0.98  0.00  0.00  0.00  0.98  0.00
  WS02006112WS02006115    1.00   0.02  0.00  0.00  0.97  0.00  0.00  0.00  0.00  0.00
  WS02006113WS02006111    1.00   0.02  0.00  0.00  0.00  0.98  0.00  0.00  0.16  0.00
  WS02006115WS02006116    1.00   0.02  0.00  0.00  0.97  0.00  0.00  0.01  0.00  0.00
  WS02006116WS02004401    1.00   0.02  0.00  0.00  0.98  0.00  0.00  0.00  0.00  0.00
  WS02006228WS02006109    1.00   0.00  0.00  0.00  1.00  0.00  0.00  0.00  0.00  0.00
  WS02006229WS02006228    1.00   0.00  0.00  0.00  0.99  0.00  0.00  0.01  0.00  0.00
  WS02006230WS02006229    1.00   0.00  0.00  0.00  0.99  0.00  0.00  0.01  0.02  0.00
  WS02006231WS02006230    1.00   0.00  0.00  0.00  0.31  0.00  0.69  0.00  0.00  0.00
  WS02006232WS02006231    1.00   0.00  0.00  0.00  0.99  0.00  0.01  0.00  0.00  0.00
  WS02006234WS02006232    1.00   0.00  0.00  0.00  1.00  0.00  0.00  0.00  0.12  0.00
  WS02006235WS02006234    1.00   0.00  0.00  0.00  0.82  0.00  0.18  0.00  0.00  0.00
  WS02006238WS02006235    1.00   0.00  0.00  0.00  1.00  0.00  0.00  0.00  0.00  0.00
  WS02006239WS02006238    1.00   0.00  0.00  0.00  1.00  0.00  0.00  0.00  0.27  0.00
  WS02006240WS02006239    1.00   0.00  0.00  0.00  0.67  0.00  0.00  0.33  0.01  0.00
  WS02006242WS02006240    1.00   0.00  0.00  0.00  0.99  0.00  0.01  0.00  0.00  0.00
  WS02006243WS02006242    1.00   0.00  0.00  0.00  0.99  0.00  0.00  0.01  0.41  0.00
  WS02006245WS02006243    1.00   0.00  0.00  0.00  0.76  0.00  0.00  0.24  0.01  0.00
  WS02006247WS02006245    1.00   0.00  0.00  0.00  0.97  0.00  0.00  0.02  0.00  0.00
  WS02006248WS02006247    1.00   0.00  0.00  0.00  0.99  0.00  0.00  0.01  0.23  0.00
  WS02006249WS02006248    1.00   0.00  0.00  0.00  0.58  0.00  0.42  0.00  0.00  0.00
  WS02006251WS02006249    1.00   0.00  0.00  0.00  0.99  0.01  0.00  0.00  0.44  0.00
  WS02006252WS02006251    1.00   0.00  0.40  0.00  0.14  0.00  0.46  0.00  0.00  0.00
  WS02006256WS02006235    1.00   0.00  0.00  0.00  1.00  0.00  0.00  0.00  0.00  0.00
  WSF200WS02003060        1.00   0.00  0.13  0.00  0.27  0.60  0.00  0.00  0.35  0.00
  YS02001580YS02001583    1.00   0.21  0.53  0.00  0.26  0.00  0.00  0.00  0.62  0.00
  YS02001583YS02001586    1.00   0.40  0.29  0.00  0.31  0.00  0.00  0.00  0.62  0.00
  YS02001586YS02001590    1.00   0.13  0.00  0.00  0.47  0.04  0.00  0.37  0.33  0.00
  YS02001590YS02001593    1.00   0.13  0.01  0.00  0.18  0.00  0.69  0.00  0.00  0.00
  YS02001593YS02001596    1.00   0.13  0.00  0.00  0.20  0.01  0.00  0.66  0.02  0.00
  YS02001596YS02001600    1.00   0.13  0.00  0.00  0.25  0.01  0.00  0.61  0.03  0.00
  YS02001600YS02001601    1.00   0.13  0.01  0.00  0.87  0.00  0.00  0.00  0.57  0.00
  YS02001601YS02001602    1.00   0.13  0.01  0.00  0.87  0.00  0.00  0.00  0.00  0.00
  YS02001602YS02001605    1.00   0.13  0.00  0.00  0.87  0.00  0.00  0.00  0.00  0.00
  YS02001605YS02001607    1.00   0.13  0.00  0.00  0.87  0.00  0.00  0.00  0.00  0.00
  YS02001607YS02001610    1.00   0.13  0.00  0.00  0.86  0.00  0.00  0.00  0.01  0.00
  YS02001610YS02001613    1.00   0.13  0.00  0.00  0.87  0.00  0.00  0.00  0.00  0.00
  YS02001613YS02001616    1.00   0.13  0.00  0.00  0.87  0.00  0.00  0.00  0.00  0.00
  YS02001616YS02001619    1.00   0.13  0.00  0.00  0.87  0.00  0.00  0.00  0.00  0.00
  YS02001619YS02001622    1.00   0.13  0.00  0.00  0.87  0.00  0.00  0.00  0.27  0.00
  YS02001622YS02001625    1.00   0.13  0.00  0.00  0.87  0.00  0.00  0.00  0.02  0.00
  YS02001625YS02001629    1.00   0.13  0.03  0.00  0.23  0.00  0.61  0.00  0.00  0.00
  YS02001629YS02163301    1.00   0.14  0.01  0.00  0.85  0.00  0.00  0.00  0.00  0.00
  YS02001633YS02163601    1.00   0.00  0.01  0.00  0.99  0.00  0.00  0.00  0.14  0.00
  YS02001641YS02001644    1.00   0.00  0.01  0.00  0.99  0.00  0.00  0.00  0.00  0.00
  YS02001644YS02001647    1.00   0.00  0.15  0.00  0.85  0.00  0.00  0.00  0.00  0.00
  YS02001647YS02001649    1.00   0.00  0.15  0.00  0.60  0.24  0.00  0.00  0.55  0.00
  YS02001649YS02001757    1.00   0.00  0.00  0.00  0.87  0.13  0.00  0.00  0.38  0.00
  YS02001652YS02001649    1.00   0.00  0.00  0.00  0.98  0.02  0.00  0.00  0.70  0.00
  YS02001655YS02001652    1.00   0.00  0.00  0.00  0.25  0.01  0.00  0.74  0.04  0.00
  YS02001658YS02001655    1.00   0.00  0.14  0.00  0.73  0.14  0.00  0.00  0.60  0.00
  YS02001661YS02001658    1.00   0.14  0.00  0.00  0.57  0.30  0.00  0.00  0.63  0.00
  YS02001664YS02001661    1.00   0.13  0.00  0.00  0.80  0.08  0.00  0.00  0.82  0.00
  YS02001745YS02001748    1.00   0.00  0.00  0.00  0.17  0.00  0.00  0.82  0.04  0.00
  YS02001748YS02001751    1.00   0.00  0.00  0.00  0.88  0.12  0.00  0.00  0.72  0.00
  YS02001751YS02001754    1.00   0.00  0.00  0.00  0.23  0.01  0.00  0.76  0.03  0.00
  YS02001754YS02001757    1.00   0.00  0.00  0.00  1.00  0.00  0.00  0.00  0.75  0.00
  YS02001757CaochengTiaoxuchi    1.00   0.00  0.00  0.00  1.00  0.00  0.00  0.00  0.59  0.00
  YS02001759YS02001757    1.00   0.00  0.00  0.00  0.98  0.02  0.00  0.00  0.50  0.00
  YS02001762YS02001759    1.00   0.00  0.00  0.00  1.00  0.00  0.00  0.00  0.04  0.00
  YS02001765YS02001762    1.00   0.00  0.00  0.00  1.00  0.00  0.00  0.00  0.64  0.00
  YS02001767YS02001765    1.00   0.00  0.00  0.00  1.00  0.00  0.00  0.00  0.00  0.00
  YS02001770YS02001767    1.00   0.00  0.00  0.00  1.00  0.00  0.00  0.00  0.00  0.00
  YS02001774YS02001770    1.00   0.00  0.13  0.00  0.71  0.00  0.16  0.00  0.02  0.00
  YS02001779YS02001774    1.00   0.00  0.00  0.00  1.00  0.00  0.00  0.00  0.71  0.00
  YS02001783YS02001784    1.00   0.00  0.16  0.00  0.84  0.00  0.00  0.00  0.54  0.00
  YS02001784YS02001785    1.00   0.00  0.00  0.00  1.00  0.00  0.00  0.00  0.15  0.00
  YS02001786YS02001788    1.00   0.00  0.00  0.00  0.80  0.20  0.00  0.00  0.00  0.00
  YS02001788YS02001790    1.00   0.00  0.00  0.00  0.22  0.78  0.00  0.00  0.77  0.00
  YS02001790YS02001791    1.00   0.00  0.00  0.00  0.01  0.99  0.00  0.00  0.15  0.00
  YS02001791YS02001793    1.00   0.00  0.00  0.00  0.00  1.00  0.00  0.00  0.02  0.00
  YS02001793JiankangQianchi    1.00   0.00  0.00  0.00  0.97  0.03  0.00  0.00  0.92  0.00
  YS02001882YS02001884    1.00   0.14  0.00  0.00  0.85  0.00  0.00  0.00  0.00  0.00
  YS02001884YS02001887    1.00   0.06  0.05  0.00  0.89  0.00  0.00  0.00  0.00  0.00
  YS02001887YS02001890    1.00   0.00  0.00  0.00  0.97  0.00  0.03  0.00  0.00  0.00
  YS02001890YS02001895    1.00   0.00  0.15  0.00  0.85  0.00  0.00  0.00  0.00  0.00
  YS02001895YS02001898    1.00   0.15  0.00  0.00  0.84  0.00  0.01  0.00  0.00  0.00
  YS02001898YS02001901    1.00   0.15  0.00  0.00  0.85  0.00  0.00  0.00  0.00  0.00
  YS02001901YS02001904    1.00   0.15  0.00  0.00  0.85  0.00  0.00  0.00  0.00  0.00
  YS02001904YS02001907    1.00   0.00  0.15  0.00  0.85  0.00  0.00  0.00  0.00  0.00
  YS02001907YS02006553    1.00   0.00  0.02  0.00  0.98  0.00  0.00  0.00  0.00  0.00
  YS02001910YS02001907    1.00   0.00  0.00  0.00  0.97  0.00  0.00  0.03  0.11  0.00
  YS02001915YS02001910    1.00   0.00  0.00  0.00  0.97  0.03  0.00  0.00  0.12  0.00
  YS02001918YS02001915    1.00   0.00  0.01  0.00  0.98  0.02  0.00  0.00  0.69  0.00
  YS02001920YS02001918    1.00   0.00  0.01  0.00  0.99  0.00  0.00  0.00  0.00  0.00
  YS02001923YS02001920    1.00   0.00  0.00  0.00  1.00  0.00  0.00  0.00  0.88  0.00
  YS02001926YS02001923    1.00   0.00  0.07  0.00  0.10  0.00  0.83  0.00  0.00  0.00
  YS02001929YS02001926    1.00   0.00  0.13  0.00  0.87  0.00  0.00  0.00  0.78  0.00
  YS02006553YS02006556    1.00   0.01  0.00  0.00  0.99  0.00  0.00  0.00  0.03  0.00
  YS02006556YS02006558    1.00   0.00  0.00  0.00  1.00  0.00  0.00  0.00  0.00  0.00
  YS02006558YS02006561    1.00   0.16  0.00  0.00  0.09  0.75  0.00  0.00  0.16  0.00
  YS02006561YS02001783    1.00   0.16  0.00  0.00  0.14  0.70  0.00  0.00  0.64  0.00
  YS02163301YS02001633    1.00   0.00  0.14  0.00  0.86  0.00  0.00  0.00  0.00  0.00
  YS02163601YS02164001    1.00   0.00  0.08  0.00  0.92  0.00  0.00  0.00  0.00  0.00
  YS02164001YS02001641    1.00   0.01  0.07  0.00  0.92  0.00  0.00  0.00  0.05  0.00
  
  
  *************************
  Conduit Surcharge Summary
  *************************
  
  ----------------------------------------------------------------------------
                                                           Hours        Hours 
                         --------- Hours Full --------   Above Full   Capacity
  Conduit                Both Ends  Upstream  Dnstream   Normal Flow   Limited
  ----------------------------------------------------------------------------
  WS02003072WS02003073        0.01      0.01      0.01      1.50         0.01
  WS02004404WS02004405        0.01      0.01      0.01      4.39         0.01
  WS02004405WS02004406        0.01      0.01      0.01      0.81         0.01
  WS02006109WS02006110        0.82      0.82      2.22      0.98         0.01
  WS02006110WS02006113        0.01      0.01      2.17      0.01         0.01
  WS02006111WS02006112        0.01      0.01      2.87      0.01         0.01
  WS02006112WS02006115        0.01      0.01      0.91      0.01         0.01
  WS02006228WS02006109        2.15      2.22      2.15      3.15         2.14
  WS02006229WS02006228        2.14      2.15      2.14      2.70         2.13
  WS02006230WS02006229        2.35      2.60      2.35      4.86         2.35
  WS02006231WS02006230        0.84      0.84      1.07      4.63         0.01
  WS02006232WS02006231        1.00      1.00      2.22      1.08         0.01
  WS02006234WS02006232        2.09      2.09      2.22      1.06         1.05
  WS02006235WS02006234        1.37      1.38      2.10      4.53         0.02
  WS02006238WS02006235        2.12      2.12      2.23      0.01         0.01
  WS02006239WS02006238        2.17      2.21      2.17      2.55         1.94
  WS02006240WS02006239        2.13      2.16      2.13      2.54         1.79
  WS02006242WS02006240        2.15      2.15      2.37      2.80         0.01
  WS02006243WS02006242        2.17      2.17      2.25      0.01         0.05
  WS02006245WS02006243        2.16      2.17      2.16      1.65         1.39
  WS02006247WS02006245        2.16      2.19      2.16      4.26         2.14
  WS02006248WS02006247        2.15      2.15      2.18      0.01         0.06
  WS02006249WS02006248        2.14      2.14      2.16      4.25         0.01
  WS02006251WS02006249        2.16      2.16      2.16      2.61         2.07
  WS02006252WS02006251        2.68      2.68      2.68      2.68         0.01
  WS02006256WS02006235        4.55      4.59      5.85      1.33         0.01
  YS02001580YS02001583        1.04      1.04      1.13      0.01         0.01
  YS02001583YS02001586        1.05      1.05      1.25      0.01         0.01
  YS02001586YS02001590        1.26      1.26      1.34      0.01         0.01
  YS02001590YS02001593        1.35      1.35      1.37      1.35         0.01
  YS02001593YS02001596        1.36      1.36      1.46      0.01         0.01
  YS02001596YS02001600        1.51      1.51      1.59      0.01         0.01
  YS02001600YS02001601        1.63      1.63      1.86      0.01         0.01
  YS02001601YS02001602        1.78      1.78      1.89      1.58         0.01
  YS02001602YS02001605        1.74      1.74      1.78      2.57         0.01
  YS02001605YS02001607        1.70      1.74      1.71      1.80         1.69
  YS02001607YS02001610        1.35      1.35      1.37      0.01         0.01
  YS02001610YS02001613        1.34      1.34      1.37      0.01         0.01
  YS02001613YS02001616        1.31      1.31      1.34      0.01         0.01
  YS02001616YS02001619        1.29      1.29      1.31      0.19         0.18
  YS02001619YS02001622        1.29      1.29      1.29      1.28         1.16
  YS02001622YS02001625        1.29      1.29      1.45      0.01         0.01
  YS02001625YS02001629        1.24      1.24      1.45      0.01         0.01
  YS02001629YS02163301        1.45      1.45      1.46      0.14         0.14
  YS02001633YS02163601        1.49      1.49      1.52      0.19         0.25
  YS02001641YS02001644        1.42      1.44      1.42      1.92         1.39
  YS02001644YS02001647        1.22      1.22      1.42      0.01         0.01
  YS02001647YS02001649        1.22      1.22      1.33      0.01         0.01
  YS02001649YS02001757        1.33      1.33      1.39      0.14         0.08
  YS02001652YS02001649        1.19      1.19      1.33      0.01         0.01
  YS02001655YS02001652        0.93      0.93      1.17      0.01         0.01
  YS02001658YS02001655        0.52      0.52      0.93      0.01         0.01
  YS02001661YS02001658        0.19      0.19      0.53      0.01         0.01
  YS02001664YS02001661        0.01      0.01      0.25      0.01         0.01
  YS02001745YS02001748        0.02      0.02      0.41      0.01         0.01
  YS02001748YS02001751        0.47      0.47      0.76      0.01         0.01
  YS02001751YS02001754        0.76      0.76      1.08      0.01         0.01
  YS02001754YS02001757        1.13      1.13      1.39      0.01         0.01
  YS02001757CaochengTiaoxuchi        1.39      1.39      2.15      0.55         0.54
  YS02001759YS02001757        1.31      1.31      1.39      0.01         0.03
  YS02001762YS02001759        1.29      1.29      1.31      0.01         0.02
  YS02001765YS02001762        1.24      1.24      1.29      0.01         0.01
  YS02001767YS02001765        1.23      1.23      1.24      0.01         0.02
  YS02001770YS02001767        1.23      1.23      1.23      0.82         0.76
  YS02001774YS02001770        1.21      1.21      1.28      0.01         0.01
  YS02001779YS02001774        1.06      1.06      1.28      0.01         0.01
  YS02001783YS02001784        0.84      0.87      0.84      1.09         0.84
  YS02001784YS02001785        0.70      0.84      0.70      1.45         0.70
  YS02001786YS02001788        0.01      0.69      0.01      1.25         0.01
  YS02001790YS02001791        0.01      0.01      0.01      0.81         0.01
  YS02001793JiankangQianchi        0.01      0.01      7.70      0.01         0.01
  YS02001882YS02001884        0.79      0.79      0.80      0.01         0.01
  YS02001884YS02001887        0.84      0.84      0.85      0.01         0.01
  YS02001887YS02001890        0.87      0.87      0.89      0.26         0.01
  YS02001890YS02001895        0.78      0.78      0.91      0.01         0.01
  YS02001895YS02001898        0.77      0.77      0.78      0.01         0.01
  YS02001898YS02001901        0.78      0.78      0.83      0.01         0.01
  YS02001901YS02001904        0.82      0.82      0.83      0.01         0.01
  YS02001904YS02001907        0.82      0.82      1.22      0.01         0.01
  YS02001907YS02006553        1.47      1.47      1.53      0.01         0.01
  YS02001910YS02001907        0.91      0.91      1.18      0.14         0.14
  YS02001915YS02001910        0.79      0.79      0.91      0.01         0.01
  YS02001918YS02001915        0.68      0.68      0.79      0.01         0.01
  YS02001920YS02001918        0.68      0.68      0.69      0.01         0.01
  YS02001923YS02001920        0.62      0.62      0.69      0.01         0.01
  YS02001926YS02001923        0.27      0.27      0.32      0.08         0.01
  YS02001929YS02001926        0.16      0.16      0.32      0.01         0.01
  YS02006553YS02006556        1.04      1.04      1.22      0.01         0.01
  YS02006556YS02006558        1.13      1.13      1.25      0.01         0.01
  YS02006558YS02006561        0.72      1.03      0.72      1.38         0.72
  YS02006561YS02001783        0.64      0.64      0.87      0.01         0.01
  YS02163301YS02001633        1.46      1.46      1.50      0.01         0.01
  YS02163601YS02164001        1.44      1.44      1.52      0.11         0.01
  YS02164001YS02001641        1.44      1.44      1.44      0.90         0.84
  
  
  ***************
  Pumping Summary
  ***************
  
  ---------------------------------------------------------------------------------------------------------
                                                  Min       Avg       Max     Total     Power    % Time Off
                        Percent   Number of      Flow      Flow      Flow    Volume     Usage    Pump Curve
  Pump                 Utilized   Start-Ups       LPS       LPS       LPS  10^6 ltr     Kw-hr    Low   High
  ---------------------------------------------------------------------------------------------------------
  CC-R1                   24.85           3      0.00    683.00    683.00     4.888     93.80    0.0    7.8
  CC-R2                   24.63           3      0.00    683.00    683.00     4.844     93.00    0.0    7.6
  CC-S1                   50.51           8      0.00    200.00    200.00     2.909     16.37    0.0    0.0
  CC-S2                   36.69           9      0.00    200.00    200.00     2.113     11.71    0.0    0.0
  JK-R1                    7.94          13      0.00   1000.00   1000.00     2.286     25.52    0.0    0.0
  JK-R2                    6.31           7      0.00   1000.00   1000.00     1.817     18.82    0.0    0.0
  JK-S                    16.60          17      0.00    300.00    300.00     1.434     21.12    0.0    0.0
  

  Analysis begun on:  Wed Jan 15 10:34:11 2025
  Analysis ended on:  Wed Jan 15 10:34:13 2025
  Total elapsed time: 00:00:02