
  EPA STORM WATER MANAGEMENT MODEL - VERSION 5.2 (Build 5.2.4)
  PYSWMM TOOLKIT API - VERSION v1.0 (2023-11-27)
  ------------------------------------------------------------

  WARNING 04: minimum elevation drop used for Conduit WS02004404WS02004405
  WARNING 03: negative offset ignored for Link YS02001904YS02001907
  
  ****************
  Analysis Options
  ****************
  Flow Units ............... LPS
  Process Models:
    Rainfall/Runoff ........ YES
    RDII ................... NO
    Snowmelt ............... NO
    Groundwater ............ NO
    Flow Routing ........... YES
    Ponding Allowed ........ NO
    Water Quality .......... NO
  Infiltration Method ...... HORTON
  Flow Routing Method ...... DYNWAVE
  Surcharge Method ......... EXTRAN
  Starting Date ............ 08/28/2015 08:00:00
  Ending Date .............. 08/28/2015 16:00:00
  Antecedent Dry Days ...... 8.0
  Report Time Step ......... 00:01:00
  Wet Time Step ............ 00:01:00
  Dry Time Step ............ 00:01:00
  Routing Time Step ........ 30.00 sec
  Variable Time Step ....... YES
  Maximum Trials ........... 8
  Number of Threads ........ 4
  Head Tolerance ........... 0.001500 m
  
  
  **************************        Volume         Depth
  Runoff Quantity Continuity     hectare-m            mm
  **************************     ---------       -------
  Total Precipitation ......         2.746        82.775
  Evaporation Loss .........         0.000         0.000
  Infiltration Loss ........         0.102         3.071
  Surface Runoff ...........         2.611        78.727
  Final Storage ............         0.033         0.995
  Continuity Error (%) .....        -0.022
  
  
  **************************        Volume        Volume
  Flow Routing Continuity        hectare-m      10^6 ltr
  **************************     ---------     ---------
  Dry Weather Inflow .......         0.025         0.251
  Wet Weather Inflow .......         2.611        26.114
  Groundwater Inflow .......         0.000         0.000
  RDII Inflow ..............         0.000         0.000
  External Inflow ..........         0.083         0.834
  External Outflow .........         1.717        17.175
  Flooding Loss ............         1.053        10.527
  Evaporation Loss .........         0.000         0.000
  Exfiltration Loss ........         0.000         0.000
  Initial Stored Volume ....         0.243         2.431
  Final Stored Volume ......         0.199         1.992
  Continuity Error (%) .....        -0.215
  
  
  *************************
  Highest Continuity Errors
  *************************
  Node YS02001884 (5.16%)
  Node YS02001583 (-3.98%)
  
  
  ***************************
  Time-Step Critical Elements
  ***************************
  Link WS02006252WS02006251 (48.63%)
  Link WS02006238WS02006235 (14.81%)
  Link WS02004404WS02004405 (9.98%)
  Link YS02001791YS02001793 (7.90%)
  Link WS02006235WS02006234 (6.86%)
  
  
  ********************************
  Highest Flow Instability Indexes
  ********************************
  Link WS02006113WS02006111 (54)
  Link WS02006111WS02006112 (24)
  Link WS02006238WS02006235 (12)
  Link WS02006256WS02006235 (11)
  Link WS02006252WS02006251 (11)
  
  
  *********************************
  Most Frequent Nonconverging Nodes
  *********************************
  Node CC-1 (9.41%)
  Node CC-2 (9.41%)
  Node JK-1 (9.41%)
  Node JK-2 (9.41%)
  Node WSC (9.41%)
  
  
  *************************
  Routing Time Step Summary
  *************************
  Minimum Time Step           :     0.01 sec
  Average Time Step           :     1.81 sec
  Maximum Time Step           :     7.04 sec
  % of Time in Steady State   :     0.00
  Average Iterations per Step :     2.88
  % of Steps Not Converging   :     9.41
  Time Step Frequencies       :
     30.000 - 13.228 sec      :     0.00 %
     13.228 -  5.833 sec      :     7.25 %
      5.833 -  2.572 sec      :    16.02 %
      2.572 -  1.134 sec      :    22.81 %
      1.134 -  0.500 sec      :    53.92 %
  
  
  ***************************
  Subcatchment Runoff Summary
  ***************************
  
  ------------------------------------------------------------------------------------------------------------------------------
                            Total      Total      Total      Total     Imperv       Perv      Total       Total     Peak  Runoff
                           Precip      Runon       Evap      Infil     Runoff     Runoff     Runoff      Runoff   Runoff   Coeff
  Subcatchment                 mm         mm         mm         mm         mm         mm         mm    10^6 ltr      LPS
  ------------------------------------------------------------------------------------------------------------------------------
  sub60                     82.77       0.00       0.00       1.84      71.64       8.10      79.74        1.05   715.37   0.963
  sub61                     82.77       0.00       0.00       2.67      67.58      11.41      78.99        1.45   993.77   0.954
  sub62                     82.77       0.00       0.00       1.23      74.87       5.40      80.27        2.20  1411.63   0.970
  sub63                     82.77       0.00       0.00       4.92      57.80      19.09      76.89        1.75  1133.71   0.929
  sub64                     82.77       0.00       0.00       2.49      69.16       9.93      79.09        1.90  1159.30   0.955
  sub65                     82.77       0.00       0.00       2.15      70.76       8.61      79.37        2.19  1294.82   0.959
  sub66                     82.77       0.00       0.00       6.12      57.70      17.89      75.59        3.52  1733.33   0.913
  sub67                     82.77       0.00       0.00       1.18      74.91       5.45      80.36        1.49  1072.52   0.971
  sub68                     82.77       0.00       0.00       2.21      70.00       9.38      79.39        2.18  1445.51   0.959
  sub69                     82.77       0.00       0.00       1.98      70.25      10.44      80.69        2.99  1721.99   0.975
  sub70                     82.77       0.00       0.00       6.64      54.47      21.50      75.97        2.19   975.02   0.918
  sub71                     82.77       0.00       0.00       1.26      74.83       5.37      80.20        2.10  1250.64   0.969
  sub72                     82.77       0.00       0.00       1.12      75.58       4.68      80.26        1.10   611.41   0.970
  
  
  ******************
  Node Depth Summary
  ******************
  
  ---------------------------------------------------------------------------------
                                 Average  Maximum  Maximum  Time of Max    Reported
                                   Depth    Depth      HGL   Occurrence   Max Depth
  Node                 Type       Meters   Meters   Meters  days hr:min      Meters
  ---------------------------------------------------------------------------------
  WS02003060           JUNCTION     0.25     0.38     5.32     0  02:21        0.38
  WS02003066           JUNCTION     0.21     0.30     5.85     0  02:21        0.30
  WS02003067           JUNCTION     0.52     0.70     6.02     0  02:21        0.70
  WS02003069           JUNCTION     0.28     0.43     5.01     0  02:22        0.43
  WS02003072           JUNCTION     0.34     0.50     4.87     0  02:23        0.50
  WS02003073           JUNCTION     0.20     0.30     4.36     0  02:23        0.30
  WS02004401           JUNCTION     0.61     0.85     6.85     0  02:18        0.85
  WS02004402           JUNCTION     0.64     0.88     6.84     0  02:18        0.88
  WS02004403           JUNCTION     0.67     0.89     6.82     0  02:19        0.89
  WS02004404           JUNCTION     0.74     0.96     6.81     0  02:19        0.96
  WS02004405           JUNCTION     0.74     0.96     6.81     0  02:19        0.96
  WS02004406           JUNCTION     0.75     0.96     6.79     0  02:19        0.96
  WS02004407           JUNCTION     0.19     0.30     6.61     0  02:19        0.30
  WS02004409           JUNCTION     0.42     0.67     6.44     0  02:19        0.67
  WS02004410           JUNCTION     0.44     0.68     6.40     0  02:20        0.68
  WS02004411           JUNCTION     0.46     0.69     6.37     0  02:20        0.69
  WS02004412           JUNCTION     0.48     0.70     6.34     0  02:20        0.70
  WS02004413           JUNCTION     0.64     0.86     6.33     0  02:20        0.86
  WS02006109           JUNCTION     0.68     1.64     8.26     0  02:47        1.08
  WS02006110           JUNCTION     0.68     1.86     8.44     0  02:47        1.05
  WS02006111           JUNCTION     0.19     0.29     6.99     0  02:56        0.29
  WS02006112           JUNCTION     0.77     1.08     6.97     0  02:37        1.05
  WS02006113           JUNCTION     0.29     0.46     7.35     0  02:39        0.46
  WS02006115           JUNCTION     0.50     0.75     6.89     0  02:18        0.75
  WS02006116           JUNCTION     0.58     0.83     6.87     0  02:18        0.83
  WS02006228           JUNCTION     0.67     1.36     8.01     0  02:47        1.09
  WS02006229           JUNCTION     0.64     1.29     7.98     0  02:47        1.07
  WS02006230           JUNCTION     0.64     1.40     8.14     0  02:47        1.16
  WS02006231           JUNCTION     0.45     1.56     8.68     0  01:59        0.90
  WS02006232           JUNCTION     0.59     1.52     8.56     0  01:59        1.10
  WS02006234           JUNCTION     0.51     1.44     8.60     0  01:58        1.17
  WS02006235           JUNCTION     0.55     1.41     8.57     0  02:53        1.36
  WS02006238           JUNCTION     0.58     1.45     8.60     0  02:53        1.40
  WS02006239           JUNCTION     0.55     1.44     8.65     0  02:53        1.35
  WS02006240           JUNCTION     0.51     1.40     8.69     0  02:53        1.35
  WS02006242           JUNCTION     0.58     1.44     8.71     0  02:53        1.43
  WS02006243           JUNCTION     0.48     1.32     8.74     0  02:54        1.32
  WS02006245           JUNCTION     0.48     1.31     8.80     0  01:58        1.27
  WS02006247           JUNCTION     0.50     1.24     8.74     0  02:54        1.24
  WS02006248           JUNCTION     0.46     1.10     8.69     0  02:25        1.10
  WS02006249           JUNCTION     0.49     1.09     8.69     0  01:58        1.09
  WS02006251           JUNCTION     0.49     1.49     9.16     0  02:25        1.24
  WS02006252           JUNCTION     0.36     1.50     9.74     0  00:00        0.80
  WS02006256           JUNCTION     1.01     2.35     9.28     0  00:00        2.35
  WSF200               JUNCTION     0.18     0.29     5.52     0  02:21        0.29
  YS02001580           JUNCTION     0.10     1.05     9.59     0  01:50        0.77
  YS02001583           JUNCTION     0.13     1.14     9.64     0  01:50        0.83
  YS02001586           JUNCTION     0.20     1.13     9.30     0  01:50        1.13
  YS02001590           JUNCTION     0.30     1.40     9.26     0  02:23        1.40
  YS02001593           JUNCTION     0.24     1.34     9.20     0  02:29        1.34
  YS02001596           JUNCTION     0.32     1.68     9.10     0  01:50        1.65
  YS02001600           JUNCTION     0.37     1.87     9.00     0  01:50        1.87
  YS02001601           JUNCTION     0.56     2.06     8.90     0  01:49        2.06
  YS02001602           JUNCTION     0.47     1.87     8.77     0  01:49        1.87
  YS02001605           JUNCTION     0.44     1.78     8.68     0  01:49        1.78
  YS02001607           JUNCTION     0.44     1.68     8.53     0  01:50        1.65
  YS02001610           JUNCTION     0.48     1.68     8.48     0  01:49        1.68
  YS02001613           JUNCTION     0.44     1.70     8.54     0  01:49        1.67
  YS02001616           JUNCTION     0.37     1.61     8.52     0  01:49        1.61
  YS02001619           JUNCTION     0.35     1.61     8.54     0  01:49        1.61
  YS02001622           JUNCTION     0.34     1.61     8.51     0  01:49        1.58
  YS02001625           JUNCTION     0.61     1.78     8.38     0  01:50        1.78
  YS02001629           JUNCTION     0.46     1.85     8.40     0  01:50        1.85
  YS02001633           JUNCTION     0.54     2.06     8.51     0  01:55        2.06
  YS02001641           JUNCTION     0.52     1.97     8.41     0  01:55        1.97
  YS02001644           JUNCTION     0.52     1.92     8.35     0  01:55        1.92
  YS02001647           JUNCTION     0.31     1.77     8.38     0  01:59        1.76
  YS02001649           JUNCTION     0.35     2.02     8.41     0  02:00        2.01
  YS02001652           JUNCTION     0.25     1.87     8.47     0  02:00        1.86
  YS02001655           JUNCTION     0.20     1.77     8.62     0  01:55        1.68
  YS02001658           JUNCTION     0.14     1.71     8.86     0  01:55        1.45
  YS02001661           JUNCTION     0.17     1.29     8.69     0  01:58        1.25
  YS02001664           JUNCTION     0.06     0.75     8.68     0  02:00        0.74
  YS02001745           JUNCTION     0.08     0.93     8.45     0  02:00        0.93
  YS02001748           JUNCTION     0.14     1.65     8.72     0  01:55        1.34
  YS02001751           JUNCTION     0.17     1.56     8.43     0  01:55        1.52
  YS02001754           JUNCTION     0.23     1.76     8.37     0  02:00        1.75
  YS02001757           JUNCTION     0.39     2.08     8.34     0  02:00        2.08
  YS02001759           JUNCTION     0.32     2.08     8.44     0  02:00        2.08
  YS02001762           JUNCTION     0.31     2.04     8.44     0  02:00        2.03
  YS02001765           JUNCTION     0.29     2.03     8.48     0  02:23        2.03
  YS02001767           JUNCTION     0.29     2.03     8.52     0  02:23        2.03
  YS02001770           JUNCTION     0.30     1.95     8.44     0  01:55        1.95
  YS02001774           JUNCTION     0.37     2.05     8.47     0  01:55        2.05
  YS02001779           JUNCTION     0.21     1.68     8.37     0  01:54        1.68
  YS02001783           JUNCTION     0.23     1.25     7.39     0  01:59        1.24
  YS02001784           JUNCTION     0.25     1.14     7.20     0  02:07        1.13
  YS02001786           JUNCTION     0.21     0.89     6.92     0  02:07        0.88
  YS02001788           JUNCTION     0.15     0.63     6.60     0  01:59        0.62
  YS02001790           JUNCTION     0.18     0.73     6.38     0  01:59        0.73
  YS02001791           JUNCTION     0.11     0.44     5.91     0  01:57        0.43
  YS02001793           JUNCTION     0.06     0.28     5.11     0  01:57        0.26
  YS02001882           JUNCTION     0.30     1.83     8.55     0  01:52        1.67
  YS02001884           JUNCTION     0.40     1.90     8.52     0  01:52        1.76
  YS02001887           JUNCTION     0.47     1.90     8.44     0  01:52        1.85
  YS02001890           JUNCTION     0.50     1.81     8.32     0  01:52        1.81
  YS02001895           JUNCTION     0.27     1.57     8.31     0  01:54        1.56
  YS02001898           JUNCTION     0.28     1.57     8.30     0  01:54        1.56
  YS02001901           JUNCTION     0.40     1.68     8.29     0  01:58        1.67
  YS02001904           JUNCTION     0.38     1.64     8.27     0  01:54        1.63
  YS02001907           JUNCTION     0.70     1.96     8.25     0  01:54        1.96
  YS02001910           JUNCTION     0.50     1.99     8.49     0  02:01        1.98
  YS02001915           JUNCTION     0.31     2.00     8.72     0  01:52        1.95
  YS02001918           JUNCTION     0.17     1.81     8.88     0  01:54        1.66
  YS02001920           JUNCTION     0.25     2.07     9.08     0  01:54        1.74
  YS02001923           JUNCTION     0.13     2.03     9.29     0  01:54        1.52
  YS02001926           JUNCTION     0.16     1.90     9.35     0  01:54        1.36
  YS02001929           JUNCTION     0.09     1.78     9.47     0  01:54        1.13
  YS02006553           JUNCTION     0.70     1.98     8.27     0  01:59        1.98
  YS02006556           JUNCTION     0.68     1.98     8.29     0  02:00        1.96
  YS02006558           JUNCTION     0.72     2.03     8.29     0  02:00        2.01
  YS02006561           JUNCTION     0.15     0.94     7.60     0  01:54        0.91
  YS02163301           JUNCTION     0.48     1.94     8.46     0  01:55        1.94
  YS02163601           JUNCTION     0.58     2.08     8.48     0  01:55        2.08
  YS02164001           JUNCTION     0.51     2.00     8.46     0  01:55        2.00
  CC-1                 OUTFALL      0.00     0.00     0.00     0  00:00        0.00
  CC-2                 OUTFALL      0.00     0.00     0.00     0  00:00        0.00
  JK-1                 OUTFALL      0.00     0.00     0.00     0  00:00        0.00
  JK-2                 OUTFALL      0.00     0.00     0.00     0  00:00        0.00
  WSC                  OUTFALL      0.20     0.30     0.97     0  02:24        0.30
  CC-storage           STORAGE      0.92     1.84     7.34     0  02:33        1.84
  JK-storage           STORAGE      3.06     4.21     5.01     0  02:25        4.21
  
  
  *******************
  Node Inflow Summary
  *******************
  
  -------------------------------------------------------------------------------------------------
                                  Maximum  Maximum                  Lateral       Total        Flow
                                  Lateral    Total  Time of Max      Inflow      Inflow     Balance
                                   Inflow   Inflow   Occurrence      Volume      Volume       Error
  Node                 Type           LPS      LPS  days hr:min    10^6 ltr    10^6 ltr     Percent
  -------------------------------------------------------------------------------------------------
  WS02003060           JUNCTION     16.53   553.14     0  02:21       0.476        6.19       0.061
  WS02003066           JUNCTION      0.00   536.44     0  02:21           0        5.72       0.035
  WS02003067           JUNCTION      0.00   536.40     0  02:20           0        5.72       0.089
  WS02003069           JUNCTION      0.32   553.31     0  02:22     0.00922         6.2       0.095
  WS02003072           JUNCTION      0.00   553.10     0  02:22           0        6.19       0.144
  WS02003073           JUNCTION      1.82   554.83     0  02:23      0.0524        6.23       0.110
  WS02004401           JUNCTION      0.00   538.25     0  02:38           0        5.85       0.211
  WS02004402           JUNCTION      0.00   537.25     0  02:18           0        5.84       0.211
  WS02004403           JUNCTION      0.00   537.53     0  02:18           0        5.83       0.202
  WS02004404           JUNCTION      0.16   537.12     0  02:18     0.00467        5.82       0.164
  WS02004405           JUNCTION      0.04   537.05     0  02:19      0.0011        5.81       0.246
  WS02004406           JUNCTION      0.00   537.33     0  02:19           0         5.8       0.406
  WS02004407           JUNCTION      0.00   536.98     0  02:19           0        5.77       0.044
  WS02004409           JUNCTION      0.00   536.83     0  02:19           0        5.77       0.090
  WS02004410           JUNCTION      0.00   536.71     0  02:19           0        5.76       0.119
  WS02004411           JUNCTION      0.00   536.59     0  02:20           0        5.76       0.138
  WS02004412           JUNCTION      0.00   536.54     0  02:20           0        5.75       0.172
  WS02004413           JUNCTION      0.00   536.59     0  02:20           0        5.74       0.289
  WS02006109           JUNCTION      1.23   557.65     0  02:47      0.0354        5.91       0.190
  WS02006110           JUNCTION      0.00   557.79     0  02:47           0         5.9       0.149
  WS02006111           JUNCTION      0.00   560.24     0  02:39           0        5.89       0.021
  WS02006112           JUNCTION      0.00   544.76     0  02:57           0        5.89       0.346
  WS02006113           JUNCTION      0.00   568.54     0  02:26           0        5.89       0.053
  WS02006115           JUNCTION      0.00   549.49     0  02:49           0        5.87       0.152
  WS02006116           JUNCTION      0.00   539.82     0  02:56           0        5.86       0.136
  WS02006228           JUNCTION      0.00   556.25     0  02:47           0        5.88       0.083
  WS02006229           JUNCTION      0.00   556.14     0  02:47           0        5.89       0.095
  WS02006230           JUNCTION     10.28   590.76     0  02:25       0.296        5.89       0.056
  WS02006231           JUNCTION      0.00   576.79     0  02:43           0         5.6       0.052
  WS02006232           JUNCTION      0.00   575.84     0  02:43           0        5.61       0.191
  WS02006234           JUNCTION      0.00   570.78     0  02:43           0         5.6      -0.114
  WS02006235           JUNCTION      0.00   564.43     0  02:36           0        5.68       0.155
  WS02006238           JUNCTION      0.00   423.31     0  02:40           0        4.71      -0.129
  WS02006239           JUNCTION      0.00   422.37     0  02:40           0        4.67      -0.147
  WS02006240           JUNCTION      0.00   419.99     0  03:12           0        4.63      -0.034
  WS02006242           JUNCTION      0.00   420.12     0  03:12           0         4.6      -0.017
  WS02006243           JUNCTION      0.00   419.74     0  03:12           0        4.58      -0.174
  WS02006245           JUNCTION      0.00   418.70     0  03:12           0        4.58       0.168
  WS02006247           JUNCTION      0.00   419.03     0  03:12           0        4.58      -0.018
  WS02006248           JUNCTION      0.00   419.53     0  03:12           0        4.58       0.012
  WS02006249           JUNCTION      0.00   459.02     0  00:00           0        4.82       0.143
  WS02006251           JUNCTION      0.08   406.47     0  02:25     0.00222        4.82       0.023
  WS02006252           JUNCTION      0.00   400.00     0  00:00           0        4.81      -0.099
  WS02006256           JUNCTION      0.00   300.00     0  00:00           0        1.45      -0.615
  WSF200               JUNCTION      0.00   536.48     0  02:21           0        5.72       0.018
  YS02001580           JUNCTION      0.00    96.00     0  01:50           0      0.0041      -0.054
  YS02001583           JUNCTION      0.00   146.79     0  01:50           0      0.0154      -3.824
  YS02001586           JUNCTION    975.02   975.03     0  02:04        2.19        2.21       0.052
  YS02001590           JUNCTION      0.00   318.09     0  02:23           0        1.52      -0.022
  YS02001593           JUNCTION      0.00   318.06     0  02:00           0        1.52      -0.006
  YS02001596           JUNCTION      0.00   317.99     0  02:27           0        1.52      -0.015
  YS02001600           JUNCTION      0.00   318.05     0  02:00           0        1.52       0.009
  YS02001601           JUNCTION   1721.99  2039.48     0  02:03        2.99         4.5       0.013
  YS02001602           JUNCTION      0.00   512.52     0  01:49           0        2.47       0.015
  YS02001605           JUNCTION      0.00   512.77     0  01:49           0        2.32       0.020
  YS02001607           JUNCTION      0.00   513.00     0  01:49           0        2.32       0.083
  YS02001610           JUNCTION      0.00   951.15     0  02:05           0        2.81       0.074
  YS02001613           JUNCTION      0.00   615.11     0  02:05           0        2.18       0.067
  YS02001616           JUNCTION      0.00   615.07     0  02:05           0        2.18       0.023
  YS02001619           JUNCTION   1733.33  1733.33     0  02:03        3.52        5.21      -0.005
  YS02001622           JUNCTION      0.00  1053.23     0  02:05           0         4.7       0.001
  YS02001625           JUNCTION      0.00  1502.22     0  02:05           0        5.06       0.187
  YS02001629           JUNCTION      0.00   921.17     0  01:53           0        3.67       0.013
  YS02001633           JUNCTION   1295.02  1361.15     0  01:53        2.19        5.39       0.061
  YS02001641           JUNCTION      0.00  1360.32     0  01:53           0        4.93       0.055
  YS02001644           JUNCTION   1159.34  1892.32     0  02:02         1.9        6.84       0.046
  YS02001647           JUNCTION      0.00  1757.97     0  01:53           0        5.78       0.009
  YS02001649           JUNCTION      0.00  1962.39     0  01:52           0        7.53       0.000
  YS02001652           JUNCTION      0.00  1143.86     0  02:01           0        1.75      -0.065
  YS02001655           JUNCTION      0.15  1143.20     0  02:01     0.00443        1.75      -0.010
  YS02001658           JUNCTION      0.00  1143.26     0  02:01           0        1.75      -0.020
  YS02001661           JUNCTION      0.00  1142.73     0  02:01           0        1.75       0.001
  YS02001664           JUNCTION   1133.71  1133.71     0  02:02        1.75        1.75      -0.003
  YS02001745           JUNCTION    715.37   715.37     0  02:02        1.05        1.05       0.145
  YS02001748           JUNCTION      0.04   726.14     0  02:01      0.0013        1.05      -0.225
  YS02001751           JUNCTION      0.01   726.28     0  02:01    0.000317        1.06       0.080
  YS02001754           JUNCTION      0.26   727.16     0  02:01     0.00749        1.07      -0.136
  YS02001757           JUNCTION      0.00  3247.24     0  02:00           0        11.8       0.019
  YS02001759           JUNCTION    993.81  1381.89     0  02:01        1.45        3.17      -0.009
  YS02001762           JUNCTION      0.00   722.11     0  01:56           0        1.72      -0.011
  YS02001765           JUNCTION      0.00   722.92     0  01:56           0        1.72      -0.008
  YS02001767           JUNCTION      0.54   724.12     0  01:56      0.0154        1.72       0.002
  YS02001770           JUNCTION   1411.78  1411.78     0  02:02         2.2        2.25      -0.024
  YS02001774           JUNCTION      0.00   850.40     0  02:03           0       0.537       0.153
  YS02001779           JUNCTION      0.01   850.40     0  02:03    0.000144       0.491      -0.208
  YS02001783           JUNCTION      0.00  1168.89     0  02:01           0        4.58       0.003
  YS02001784           JUNCTION      1.06  1169.92     0  02:01      0.0305        4.61       0.010
  YS02001786           JUNCTION      0.06  1169.80     0  02:01     0.00162        4.61       0.015
  YS02001788           JUNCTION      0.07  1170.41     0  02:00     0.00204        4.62       0.006
  YS02001790           JUNCTION      0.15  1176.69     0  02:00     0.00446        4.62       0.031
  YS02001791           JUNCTION      0.00  1303.11     0  01:59           0        4.62      -0.033
  YS02001793           JUNCTION      0.00  1241.27     0  02:10           0        4.62       0.006
  YS02001882           JUNCTION      0.00    33.59     0  01:51           0      0.0128       5.213
  YS02001884           JUNCTION      0.00    78.35     0  01:51           0      0.0487       5.436
  YS02001887           JUNCTION   1072.97  1073.93     0  02:01        1.51        1.54       0.281
  YS02001890           JUNCTION      0.00  1073.30     0  02:01           0         1.5       0.336
  YS02001895           JUNCTION      0.00   517.74     0  02:08           0        1.27       0.136
  YS02001898           JUNCTION      0.00   517.60     0  02:08           0        1.27       0.026
  YS02001901           JUNCTION      0.00   517.65     0  02:08           0        1.27       0.268
  YS02001904           JUNCTION      0.00   518.27     0  02:00           0        1.27       0.227
  YS02001907           JUNCTION      0.00  2661.03     0  02:02           0        4.62       0.384
  YS02001910           JUNCTION      0.00  1860.94     0  02:03           0        3.28       0.220
  YS02001915           JUNCTION   1250.66  1860.84     0  02:03         2.1        3.32       0.042
  YS02001918           JUNCTION      0.00   618.05     0  02:03           0        1.25       0.002
  YS02001920           JUNCTION      2.87   617.34     0  02:03      0.0827        1.23       0.078
  YS02001923           JUNCTION      0.04   612.81     0  02:03     0.00109        1.13      -0.028
  YS02001926           JUNCTION      0.05   611.93     0  02:03      0.0015        1.11       0.001
  YS02001929           JUNCTION    611.41   611.41     0  02:03         1.1         1.1      -0.078
  YS02006553           JUNCTION      0.00   832.46     0  02:23           0        2.55       0.466
  YS02006556           JUNCTION      0.00   832.77     0  02:23           0        2.56       0.321
  YS02006558           JUNCTION   1446.39  1446.39     0  02:02        2.21        4.68       0.073
  YS02006561           JUNCTION      0.00  1168.37     0  02:00           0        4.58      -0.001
  YS02163301           JUNCTION      0.00   921.51     0  01:53           0        3.67       0.037
  YS02163601           JUNCTION      0.11  1361.13     0  01:53     0.00317        4.93       0.097
  YS02164001           JUNCTION      0.00  1360.68     0  01:53           0        4.93       0.043
  CC-1                 OUTFALL       0.00   683.00     0  00:00           0        4.18       0.000
  CC-2                 OUTFALL       0.00   683.00     0  00:00           0        3.58       0.000
  JK-1                 OUTFALL       0.00  1000.00     0  00:00           0        1.97       0.000
  JK-2                 OUTFALL       0.00  1000.00     0  00:00           0        1.22       0.000
  WSC                  OUTFALL       0.00   554.77     0  02:24           0        6.23       0.000
  CC-storage           STORAGE       0.00  3245.97     0  02:00           0          14      -0.204
  JK-storage           STORAGE       0.00  1301.58     0  02:10           0        4.77      -0.056
  
  
  **********************
  Node Surcharge Summary
  **********************
  
  Surcharging occurs when water rises above the top of the highest conduit.
  ---------------------------------------------------------------------
                                               Max. Height   Min. Depth
                                   Hours       Above Crown    Below Rim
  Node                 Type      Surcharged         Meters       Meters
  ---------------------------------------------------------------------
  WS02006109           JUNCTION        2.02          0.820        1.000
  WS02006110           JUNCTION        0.80          0.946        0.904
  WS02006112           JUNCTION        0.82          0.084        1.596
  WS02006228           JUNCTION        2.01          0.532        1.668
  WS02006229           JUNCTION        2.02          0.488        1.962
  WS02006230           JUNCTION        0.81          0.317        1.253
  WS02006231           JUNCTION        0.91          0.849        0.681
  WS02006232           JUNCTION        2.12          0.821        0.659
  WS02006234           JUNCTION        1.16          0.721        0.519
  WS02006235           JUNCTION        1.99          0.698        0.592
  WS02006238           JUNCTION        2.05          0.733        0.697
  WS02006239           JUNCTION        2.00          0.700        0.590
  WS02006240           JUNCTION        2.01          0.688        0.702
  WS02006242           JUNCTION        2.14          0.713        0.107
  WS02006243           JUNCTION        2.02          0.611        0.159
  WS02006245           JUNCTION        2.01          0.602        0.248
  WS02006247           JUNCTION        2.03          0.526        0.234
  WS02006248           JUNCTION        2.00          0.380        0.000
  WS02006249           JUNCTION        2.01          0.390        0.000
  WS02006251           JUNCTION        0.96          0.465        0.715
  WS02006252           JUNCTION        2.61          1.100        0.000
  WS02006256           JUNCTION        6.02          2.050        0.000
  YS02001580           JUNCTION        0.80          0.450        0.000
  YS02001583           JUNCTION        0.80          0.500        0.000
  YS02001586           JUNCTION        0.94          0.510        0.000
  YS02001590           JUNCTION        1.03          0.750        0.000
  YS02001593           JUNCTION        1.03          0.716        0.124
  YS02001596           JUNCTION        1.15          0.947        0.123
  YS02001600           JUNCTION        1.32          1.190        0.000
  YS02001601           JUNCTION        1.60          1.440        0.000
  YS02001602           JUNCTION        1.51          1.270        0.000
  YS02001605           JUNCTION        1.47          1.180        0.000
  YS02001607           JUNCTION        1.03          0.680        0.000
  YS02001610           JUNCTION        1.06          0.680        0.000
  YS02001613           JUNCTION        1.03          0.700        0.000
  YS02001616           JUNCTION        0.98          0.610        0.000
  YS02001619           JUNCTION        0.96          0.610        0.000
  YS02001622           JUNCTION        0.96          0.610        0.010
  YS02001625           JUNCTION        1.17          0.780        0.000
  YS02001629           JUNCTION        0.92          0.470        0.000
  YS02001633           JUNCTION        1.21          1.041        0.019
  YS02001641           JUNCTION        1.16          0.974        0.126
  YS02001644           JUNCTION        1.13          0.920        0.000
  YS02001647           JUNCTION        0.90          0.770        0.130
  YS02001649           JUNCTION        1.05          1.015        0.035
  YS02001652           JUNCTION        0.84          0.842        0.288
  YS02001655           JUNCTION        0.65          0.774        0.426
  YS02001658           JUNCTION        0.36          0.714        0.586
  YS02001661           JUNCTION        0.12          0.219        1.171
  YS02001748           JUNCTION        0.29          0.568        0.622
  YS02001751           JUNCTION        0.50          0.555        0.645
  YS02001754           JUNCTION        0.75          0.715        0.435
  YS02001757           JUNCTION        1.13          1.078        0.132
  YS02001759           JUNCTION        1.04          1.080        0.130
  YS02001762           JUNCTION        1.00          1.041        0.109
  YS02001765           JUNCTION        0.95          1.026        0.074
  YS02001767           JUNCTION        0.92          1.030        0.000
  YS02001770           JUNCTION        0.88          0.920        0.000
  YS02001774           JUNCTION        0.98          1.050        0.000
  YS02001779           JUNCTION        0.74          0.680        0.000
  YS02001783           JUNCTION        0.68          0.452        1.148
  YS02001784           JUNCTION        0.65          0.336        1.154
  YS02001786           JUNCTION        0.53          0.089        1.341
  YS02001882           JUNCTION        0.61          0.830        0.000
  YS02001884           JUNCTION        0.63          0.844        0.026
  YS02001887           JUNCTION        0.66          0.854        0.096
  YS02001890           JUNCTION        0.68          0.760        0.000
  YS02001895           JUNCTION        0.60          0.567        0.183
  YS02001898           JUNCTION        0.59          0.539        0.201
  YS02001901           JUNCTION        0.65          0.679        0.191
  YS02001904           JUNCTION        0.64          0.643        0.207
  YS02001907           JUNCTION        0.91          0.950        0.000
  YS02001910           JUNCTION        0.71          0.985        0.115
  YS02001915           JUNCTION        0.61          1.000        0.000
  YS02001918           JUNCTION        0.52          0.810        0.000
  YS02001920           JUNCTION        0.53          1.068        0.072
  YS02001923           JUNCTION        0.21          0.820        0.000
  YS02001926           JUNCTION        0.23          0.900        0.000
  YS02001929           JUNCTION        0.08          0.780        0.000
  YS02006553           JUNCTION        0.94          0.983        0.207
  YS02006556           JUNCTION        0.81          0.936        0.414
  YS02006558           JUNCTION        0.80          0.928        0.472
  YS02006561           JUNCTION        0.47          0.136        1.014
  YS02163301           JUNCTION        1.18          0.941        0.089
  YS02163601           JUNCTION        1.25          1.080        0.000
  YS02164001           JUNCTION        1.16          1.001        0.099
  
  
  *********************
  Node Flooding Summary
  *********************
  
  Flooding refers to all water that overflows a node, whether it ponds or not.
  --------------------------------------------------------------------------
                                                             Total   Maximum
                                 Maximum   Time of Max       Flood    Ponded
                        Hours       Rate    Occurrence      Volume     Depth
  Node                 Flooded       LPS   days hr:min    10^6 ltr    Meters
  --------------------------------------------------------------------------
  WS02006248              0.01      6.89      0  02:54       0.000     0.000
  WS02006249              0.94     84.68      0  05:04       0.230     0.000
  WS02006252              0.01    245.63      0  00:00       0.000     0.000
  WS02006256              1.34    293.19      0  00:00       0.441     0.000
  YS02001580              0.01     82.70      0  01:50       0.000     0.000
  YS02001583              0.01     59.64      0  01:50       0.000     0.000
  YS02001586              0.65    657.45      0  02:04       0.677     0.000
  YS02001590              0.01      0.04      0  02:23       0.000     0.000
  YS02001600              0.01      0.53      0  01:50       0.000     0.000
  YS02001601              0.87   1641.66      0  02:03       2.030     0.000
  YS02001602              0.77     62.05      0  02:23       0.156     0.000
  YS02001605              0.01      2.11      0  01:50       0.000     0.000
  YS02001607              0.01     27.18      0  01:50       0.000     0.000
  YS02001610              0.68    951.13      0  02:05       1.125     0.000
  YS02001613              0.01      9.35      0  01:49       0.000     0.000
  YS02001616              0.02     50.10      0  01:50       0.000     0.000
  YS02001619              0.09     79.79      0  02:03       0.015     0.000
  YS02001625              0.65   1502.19      0  02:05       1.845     0.000
  YS02001629              0.22    233.99      0  02:02       0.103     0.000
  YS02001644              0.31   1891.73      0  02:02       1.050     0.000
  YS02001767              0.01      0.20      0  02:23       0.000     0.000
  YS02001770              0.08    191.59      0  02:02       0.030     0.000
  YS02001774              0.01      6.92      0  01:55       0.000     0.000
  YS02001779              0.28    850.38      0  02:03       0.471     0.000
  YS02001882              0.01      6.25      0  01:52       0.000     0.000
  YS02001890              0.26    556.51      0  02:01       0.228     0.000
  YS02001907              0.46   2660.38      0  02:02       2.122     0.000
  YS02001915              0.01    100.92      0  01:52       0.000     0.000
  YS02001918              0.01     67.50      0  01:54       0.000     0.000
  YS02001926              0.01     44.82      0  01:54       0.000     0.000
  YS02001929              0.01    280.93      0  01:54       0.001     0.000
  YS02163601              0.01      1.67      0  01:55       0.000     0.000
  
  
  **********************
  Storage Volume Summary
  **********************
  
  ------------------------------------------------------------------------------------------------
                         Average    Avg   Evap  Exfil     Maximum    Max    Time of Max    Maximum
                          Volume   Pcnt   Pcnt   Pcnt      Volume   Pcnt     Occurrence    Outflow
  Storage Unit           1000 m³   Full   Loss   Loss     1000 m³   Full    days hr:min        LPS
  ------------------------------------------------------------------------------------------------
  CC-storage               2.563   40.0    0.0    0.0       5.121   79.9       0  02:33    1783.53
  JK-storage               0.153   52.7    0.0    0.0       0.212   72.6       0  02:25    2300.00
  
  
  ***********************
  Outfall Loading Summary
  ***********************
  
  -----------------------------------------------------------
                         Flow       Avg       Max       Total
                         Freq      Flow      Flow      Volume
  Outfall Node           Pcnt       LPS       LPS    10^6 ltr
  -----------------------------------------------------------
  CC-1                  22.20    683.00    683.00       4.177
  CC-2                  17.62    683.00    683.00       3.583
  JK-1                   7.66   1000.00   1000.00       1.970
  JK-2                   5.43   1000.00   1000.00       1.217
  WSC                   99.96    278.05    554.77       6.228
  -----------------------------------------------------------
  System                30.58   3644.05   3920.65      17.174
  
  
  ********************
  Link Flow Summary
  ********************
  
  -----------------------------------------------------------------------------
                                 Maximum  Time of Max   Maximum    Max/    Max/
                                  |Flow|   Occurrence   |Veloc|    Full    Full
  Link                 Type          LPS  days hr:min     m/sec    Flow   Depth
  -----------------------------------------------------------------------------
  1                    CONDUIT    554.77     0  02:24      2.83    0.19    0.30
  WS02003060WS02003069 CONDUIT    552.99     0  02:22      1.64    0.22    0.34
  WS02003066WSF200     CONDUIT    536.48     0  02:21      2.85    0.09    0.22
  WS02003067WS02003066 CONDUIT    536.44     0  02:21      1.21    0.17    0.42
  WS02003069WS02003072 CONDUIT    553.10     0  02:22      1.37    0.27    0.39
  WS02003072WS02003073 CONDUIT    553.01     0  02:23      1.43    1.19    0.37
  WS02004401WS02004402 CONDUIT    537.25     0  02:18      0.98    0.64    0.86
  WS02004402WS02004403 CONDUIT    537.53     0  02:18      0.97    0.77    0.88
  WS02004403WS02004404 CONDUIT    536.96     0  02:18      0.92    0.39    0.93
  WS02004404WS02004405 CONDUIT    537.02     0  02:19      1.08    5.26    0.96
  WS02004405WS02004406 CONDUIT    537.33     0  02:19      0.99    1.06    0.96
  WS02004406WS02004407 CONDUIT    536.98     0  02:19      1.04    0.24    0.63
  WS02004407WS02004409 CONDUIT    536.83     0  02:19      1.53    0.19    0.48
  WS02004409WS02004410 CONDUIT    536.71     0  02:19      0.99    0.69    0.67
  WS02004410WS02004411 CONDUIT    536.59     0  02:20      0.94    0.73    0.69
  WS02004411WS02004412 CONDUIT    536.54     0  02:20      0.92    0.76    0.69
  WS02004412WS02004413 CONDUIT    536.59     0  02:20      0.82    0.36    0.78
  WS02004413WS02003067 CONDUIT    536.40     0  02:20      1.11    0.23    0.59
  WS02006109WS02006110 CONDUIT    557.79     0  02:47      1.11    1.07    1.00
  WS02006110WS02006113 CONDUIT    568.54     0  02:26      1.37    0.52    0.79
  WS02006111WS02006112 CONDUIT    544.76     0  02:57      1.81    0.26    0.67
  WS02006112WS02006115 CONDUIT    549.49     0  02:49      0.80    0.32    0.87
  WS02006113WS02006111 CONDUIT    560.24     0  02:39      2.46    0.67    0.46
  WS02006115WS02006116 CONDUIT    539.82     0  02:56      0.97    0.69    0.76
  WS02006116WS02004401 CONDUIT    538.25     0  02:38      0.98    0.74    0.84
  WS02006228WS02006109 CONDUIT    556.42     0  02:47      1.11    2.43    1.00
  WS02006229WS02006228 CONDUIT    556.25     0  02:47      1.14    1.84    1.00
  WS02006230WS02006229 CONDUIT    556.14     0  02:47      1.45   12.38    1.00
  WS02006231WS02006230 CONDUIT    580.48     0  02:25      1.60    8.81    1.00
  WS02006232WS02006231 CONDUIT    576.79     0  02:43      1.51    1.21    1.00
  WS02006234WS02006232 CONDUIT    575.84     0  02:43      1.50    1.16    1.00
  WS02006235WS02006234 CONDUIT    570.78     0  02:43      1.48    6.02    1.00
  WS02006238WS02006235 CONDUIT    423.06     0  02:40      1.45    0.94    1.00
  WS02006239WS02006238 CONDUIT    423.31     0  02:40      1.10    1.35    1.00
  WS02006240WS02006239 CONDUIT    422.37     0  02:40      1.24    1.33    1.00
  WS02006242WS02006240 CONDUIT    419.99     0  03:12      1.13    1.67    1.00
  WS02006243WS02006242 CONDUIT    420.12     0  03:12      1.40    0.90    1.00
  WS02006245WS02006243 CONDUIT    419.74     0  03:12      1.45    1.24    1.00
  WS02006247WS02006245 CONDUIT    418.70     0  03:12      1.43    3.32    1.00
  WS02006248WS02006247 CONDUIT    419.03     0  03:12      1.44    0.91    1.00
  WS02006249WS02006248 CONDUIT    419.53     0  03:12      1.36    2.30    1.00
  WS02006251WS02006249 CONDUIT    459.02     0  00:00      1.99    1.32    1.00
  WS02006252WS02006251 CONDUIT    406.40     0  02:25     25.55    1.49    1.00
  WS02006256WS02006235 CONDUIT    288.91     0  00:00      4.23    3.06    1.00
  WSF200WS02003060     CONDUIT    536.61     0  02:21      2.06    0.12    0.28
  YS02001580YS02001583 CONDUIT     96.00     0  01:50      0.62    0.37    1.00
  YS02001583YS02001586 CONDUIT    146.79     0  01:50      0.62    0.22    1.00
  YS02001586YS02001590 CONDUIT    318.09     0  02:23      1.25    0.56    1.00
  YS02001590YS02001593 CONDUIT    318.06     0  02:00      1.12    2.00    1.00
  YS02001593YS02001596 CONDUIT    317.99     0  02:27      1.72    0.50    1.00
  YS02001596YS02001600 CONDUIT    318.05     0  02:00      1.26    0.62    1.00
  YS02001600YS02001601 CONDUIT    318.08     0  02:27      1.12    0.55    1.00
  YS02001601YS02001602 CONDUIT    512.52     0  01:49      1.81    1.85    1.00
  YS02001602YS02001605 CONDUIT    512.77     0  01:49      1.81   10.85    1.00
  YS02001605YS02001607 CONDUIT    513.00     0  01:49      1.81    2.81    1.00
  YS02001607YS02001610 CONDUIT    518.55     0  01:49      0.66    0.49    1.00
  YS02001610YS02001613 CONDUIT    615.11     0  02:05      0.78    0.71    1.00
  YS02001613YS02001616 CONDUIT    615.11     0  02:05      0.78    0.53    1.00
  YS02001616YS02001619 CONDUIT    615.07     0  02:05      0.78    1.07    1.00
  YS02001619YS02001622 CONDUIT   1053.23     0  02:05      1.34    1.55    1.00
  YS02001622YS02001625 CONDUIT   1053.23     0  02:05      1.34    0.56    1.00
  YS02001625YS02001629 CONDUIT    921.17     0  01:53      1.18    0.44    1.00
  YS02001629YS02163301 CONDUIT    921.51     0  01:53      1.17    1.13    1.00
  YS02001633YS02163601 CONDUIT   1361.02     0  01:53      1.73    1.43    1.00
  YS02001641YS02001644 CONDUIT   1360.09     0  01:53      1.73    4.40    1.00
  YS02001644YS02001647 CONDUIT   1757.97     0  01:53      2.24    1.03    1.00
  YS02001647YS02001649 CONDUIT   1773.27     0  01:53      2.31    0.94    1.00
  YS02001649YS02001757 CONDUIT   1945.76     0  01:53      2.48    1.18    1.00
  YS02001652YS02001649 CONDUIT   1143.85     0  02:01      1.46    0.57    1.00
  YS02001655YS02001652 CONDUIT   1143.86     0  02:01      1.46    0.56    1.00
  YS02001658YS02001655 CONDUIT   1143.05     0  02:01      1.88    0.48    1.00
  YS02001661YS02001658 CONDUIT   1143.26     0  02:01      2.28    0.45    1.00
  YS02001664YS02001661 CONDUIT   1142.73     0  02:01      2.25    0.36    0.88
  YS02001745YS02001748 CONDUIT    726.09     0  02:01      2.13    0.28    0.97
  YS02001748YS02001751 CONDUIT    726.27     0  02:01      1.67    0.37    1.00
  YS02001751YS02001754 CONDUIT    726.90     0  02:01      1.42    0.35    1.00
  YS02001754YS02001757 CONDUIT    726.87     0  02:01      0.93    0.29    1.00
  YS02001757CaochengTiaoxuchi CONDUIT   3245.97     0  02:00      4.13    1.40    1.00
  YS02001759YS02001757 CONDUIT   1382.59     0  02:01      1.76    0.98    1.00
  YS02001762YS02001759 CONDUIT    722.88     0  01:56      0.92    0.83    1.00
  YS02001765YS02001762 CONDUIT    722.11     0  01:56      0.92    0.68    1.00
  YS02001767YS02001765 CONDUIT    722.92     0  01:56      0.92    0.91    1.00
  YS02001770YS02001767 CONDUIT    723.59     0  01:56      0.92    2.87    1.00
  YS02001774YS02001770 CONDUIT    850.40     0  02:03      1.08    0.54    1.00
  YS02001779YS02001774 CONDUIT    850.40     0  02:03      1.08    0.43    1.00
  YS02001783YS02001784 CONDUIT   1168.86     0  02:01      2.33    1.61    1.00
  YS02001784YS02001785 CONDUIT   1169.75     0  02:01      2.33    2.72    1.00
  YS02001786YS02001788 CONDUIT   1170.34     0  02:00      2.49    2.25    0.89
  YS02001788YS02001790 CONDUIT   1176.53     0  02:00      2.72    0.87    0.85
  YS02001790YS02001791 CONDUIT   1303.11     0  01:59      3.44    1.42    0.71
  YS02001791YS02001793 CONDUIT   1241.27     0  02:10      6.75    0.53    0.43
  YS02001793JiankangQianchi CONDUIT   1301.58     0  02:10      2.59    0.10    0.64
  YS02001882YS02001884 CONDUIT     33.59     0  01:51      0.15    0.04    1.00
  YS02001884YS02001887 CONDUIT     78.35     0  01:51      0.11    0.10    1.00
  YS02001887YS02001890 CONDUIT   1073.30     0  02:01      1.37    1.84    1.00
  YS02001890YS02001895 CONDUIT    517.74     0  02:08      0.66    0.24    1.00
  YS02001895YS02001898 CONDUIT    517.60     0  02:08      0.66    0.90    1.00
  YS02001898YS02001901 CONDUIT    517.65     0  02:08      0.66    0.33    1.00
  YS02001901YS02001904 CONDUIT    518.27     0  02:00      0.66    0.80    1.00
  YS02001904YS02001907 CONDUIT    518.05     0  02:08      0.66    0.18    1.00
  YS02001907YS02006553 CONDUIT    832.46     0  02:23      0.92    0.98    1.00
  YS02001910YS02001907 CONDUIT   1861.46     0  02:03      2.37    1.05    1.00
  YS02001915YS02001910 CONDUIT   1860.94     0  02:03      2.37    0.92    1.00
  YS02001918YS02001915 CONDUIT    618.87     0  02:03      0.79    0.34    1.00
  YS02001920YS02001918 CONDUIT    618.05     0  02:03      0.79    0.60    1.00
  YS02001923YS02001920 CONDUIT    614.47     0  02:03      0.78    0.28    1.00
  YS02001926YS02001923 CONDUIT    612.78     0  02:03      0.95    0.88    1.00
  YS02001929YS02001926 CONDUIT    611.87     0  02:03      1.11    0.29    1.00
  YS02006553YS02006556 CONDUIT    832.77     0  02:23      1.06    0.71    1.00
  YS02006556YS02006558 CONDUIT    833.82     0  02:23      1.06    0.66    1.00
  YS02006558YS02006561 CONDUIT   1168.37     0  02:00      4.13    2.58    1.00
  YS02006561YS02001783 CONDUIT   1168.89     0  02:01      2.33    0.61    1.00
  YS02163301YS02001633 CONDUIT    921.55     0  01:53      1.17    0.87    1.00
  YS02163601YS02164001 CONDUIT   1360.68     0  01:53      1.73    1.21    1.00
  YS02164001YS02001641 CONDUIT   1360.32     0  01:53      1.73    1.86    1.00
  CC-R1                PUMP       683.00     0  00:00              1.00
  CC-R2                PUMP       683.00     0  00:00              1.00
  CC-S1                PUMP       200.00     0  00:00              1.00
  CC-S2                PUMP       200.00     0  00:00              1.00
  JK-R1                PUMP      1000.00     0  00:00              1.00
  JK-R2                PUMP      1000.00     0  00:00              1.00
  JK-S                 PUMP       300.00     0  00:00              1.00
  
  
  ***************************
  Flow Classification Summary
  ***************************
  
  -------------------------------------------------------------------------------------
                      Adjusted    ---------- Fraction of Time in Flow Class ---------- 
                       /Actual         Up    Down  Sub   Sup   Up    Down  Norm  Inlet 
  Conduit               Length    Dry  Dry   Dry   Crit  Crit  Crit  Crit  Ltd   Ctrl  
  -------------------------------------------------------------------------------------
  1                       1.00   0.00  0.00  0.00  0.00  1.00  0.00  0.00  0.49  0.00
  WS02003060WS02003069    1.00   0.00  0.00  0.00  0.97  0.03  0.00  0.00  0.63  0.00
  WS02003066WSF200        1.00   0.12  0.00  0.00  0.00  0.87  0.00  0.00  0.75  0.00
  WS02003067WS02003066    1.00   0.10  0.02  0.00  0.88  0.00  0.00  0.00  0.00  0.00
  WS02003069WS02003072    1.00   0.00  0.00  0.00  0.99  0.01  0.00  0.00  0.71  0.00
  WS02003072WS02003073    1.00   0.00  0.00  0.00  0.00  0.00  0.00  1.00  0.00  0.00
  WS02004401WS02004402    1.00   0.02  0.00  0.00  0.98  0.00  0.00  0.00  0.00  0.00
  WS02004402WS02004403    1.00   0.02  0.00  0.00  0.97  0.00  0.00  0.00  0.00  0.00
  WS02004403WS02004404    1.00   0.00  0.03  0.00  0.97  0.00  0.00  0.00  0.00  0.00
  WS02004404WS02004405    1.00   0.00  0.00  0.00  1.00  0.00  0.00  0.00  0.00  0.00
  WS02004405WS02004406    1.00   0.00  0.00  0.00  1.00  0.00  0.00  0.00  0.00  0.00
  WS02004406WS02004407    1.00   0.00  0.05  0.00  0.95  0.00  0.00  0.00  0.00  0.00
  WS02004407WS02004409    1.00   0.05  0.00  0.00  0.94  0.01  0.00  0.00  0.95  0.00
  WS02004409WS02004410    1.00   0.05  0.00  0.00  0.95  0.00  0.00  0.00  0.03  0.00
  WS02004410WS02004411    1.00   0.05  0.00  0.00  0.95  0.00  0.00  0.00  0.01  0.00
  WS02004411WS02004412    1.00   0.05  0.00  0.00  0.95  0.00  0.00  0.00  0.00  0.00
  WS02004412WS02004413    1.00   0.05  0.00  0.00  0.94  0.00  0.00  0.00  0.01  0.00
  WS02004413WS02003067    1.00   0.06  0.04  0.00  0.00  0.00  0.90  0.00  0.00  0.00
  WS02006109WS02006110    1.00   0.00  0.01  0.00  0.98  0.00  0.01  0.00  0.00  0.00
  WS02006110WS02006113    1.00   0.01  0.01  0.00  0.98  0.00  0.00  0.00  0.00  0.00
  WS02006111WS02006112    1.00   0.02  0.00  0.00  0.98  0.00  0.00  0.00  0.98  0.00
  WS02006112WS02006115    1.00   0.02  0.00  0.00  0.97  0.00  0.00  0.00  0.00  0.00
  WS02006113WS02006111    1.00   0.02  0.00  0.00  0.00  0.98  0.00  0.00  0.16  0.00
  WS02006115WS02006116    1.00   0.02  0.00  0.00  0.97  0.00  0.00  0.01  0.00  0.00
  WS02006116WS02004401    1.00   0.02  0.00  0.00  0.98  0.00  0.00  0.00  0.00  0.00
  WS02006228WS02006109    1.00   0.00  0.00  0.00  1.00  0.00  0.00  0.00  0.00  0.00
  WS02006229WS02006228    1.00   0.00  0.00  0.00  0.99  0.00  0.00  0.01  0.00  0.00
  WS02006230WS02006229    1.00   0.00  0.00  0.00  0.99  0.00  0.00  0.01  0.00  0.00
  WS02006231WS02006230    1.00   0.00  0.00  0.00  0.31  0.00  0.69  0.00  0.00  0.00
  WS02006232WS02006231    1.00   0.00  0.00  0.00  0.99  0.00  0.01  0.00  0.00  0.00
  WS02006234WS02006232    1.00   0.00  0.00  0.00  1.00  0.00  0.00  0.00  0.16  0.00
  WS02006235WS02006234    1.00   0.00  0.00  0.00  0.77  0.00  0.23  0.00  0.00  0.00
  WS02006238WS02006235    1.00   0.00  0.00  0.00  1.00  0.00  0.00  0.00  0.00  0.00
  WS02006239WS02006238    1.00   0.00  0.00  0.00  1.00  0.00  0.00  0.00  0.25  0.00
  WS02006240WS02006239    1.00   0.00  0.00  0.00  0.66  0.00  0.00  0.33  0.02  0.00
  WS02006242WS02006240    1.00   0.00  0.00  0.00  0.99  0.00  0.00  0.00  0.00  0.00
  WS02006243WS02006242    1.00   0.00  0.00  0.00  0.99  0.00  0.00  0.01  0.43  0.00
  WS02006245WS02006243    1.00   0.00  0.00  0.00  0.76  0.00  0.00  0.24  0.01  0.00
  WS02006247WS02006245    1.00   0.00  0.00  0.00  0.99  0.00  0.00  0.01  0.00  0.00
  WS02006248WS02006247    1.00   0.00  0.00  0.00  0.99  0.00  0.00  0.01  0.23  0.00
  WS02006249WS02006248    1.00   0.00  0.00  0.00  0.55  0.00  0.45  0.00  0.00  0.00
  WS02006251WS02006249    1.00   0.00  0.00  0.00  1.00  0.00  0.00  0.00  0.45  0.00
  WS02006252WS02006251    1.00   0.00  0.49  0.00  0.12  0.00  0.39  0.00  0.00  0.00
  WS02006256WS02006235    1.00   0.00  0.00  0.00  0.99  0.01  0.00  0.00  0.00  0.00
  WSF200WS02003060        1.00   0.00  0.12  0.00  0.28  0.59  0.00  0.00  0.38  0.00
  YS02001580YS02001583    1.00   0.23  0.55  0.00  0.22  0.00  0.00  0.00  0.65  0.00
  YS02001583YS02001586    1.00   0.41  0.31  0.00  0.27  0.00  0.00  0.00  0.65  0.00
  YS02001586YS02001590    1.00   0.13  0.00  0.00  0.44  0.04  0.00  0.39  0.35  0.00
  YS02001590YS02001593    1.00   0.13  0.01  0.00  0.14  0.00  0.72  0.00  0.00  0.00
  YS02001593YS02001596    1.00   0.13  0.00  0.00  0.17  0.01  0.00  0.69  0.02  0.00
  YS02001596YS02001600    1.00   0.13  0.00  0.00  0.22  0.01  0.00  0.64  0.04  0.00
  YS02001600YS02001601    1.00   0.13  0.01  0.00  0.86  0.00  0.00  0.00  0.59  0.00
  YS02001601YS02001602    1.00   0.13  0.01  0.00  0.87  0.00  0.00  0.00  0.00  0.00
  YS02001602YS02001605    1.00   0.13  0.00  0.00  0.87  0.00  0.00  0.00  0.00  0.00
  YS02001605YS02001607    1.00   0.14  0.00  0.00  0.86  0.00  0.00  0.00  0.00  0.00
  YS02001607YS02001610    1.00   0.13  0.01  0.00  0.86  0.00  0.00  0.00  0.01  0.00
  YS02001610YS02001613    1.00   0.13  0.00  0.00  0.87  0.00  0.00  0.00  0.00  0.00
  YS02001613YS02001616    1.00   0.13  0.00  0.00  0.87  0.00  0.00  0.00  0.00  0.00
  YS02001616YS02001619    1.00   0.13  0.00  0.00  0.87  0.00  0.00  0.00  0.00  0.00
  YS02001619YS02001622    1.00   0.13  0.00  0.00  0.87  0.00  0.00  0.00  0.28  0.00
  YS02001622YS02001625    1.00   0.13  0.00  0.00  0.87  0.00  0.00  0.00  0.04  0.00
  YS02001625YS02001629    1.00   0.13  0.04  0.00  0.19  0.00  0.64  0.00  0.00  0.00
  YS02001629YS02163301    1.00   0.15  0.01  0.00  0.84  0.00  0.00  0.00  0.00  0.00
  YS02001633YS02163601    1.00   0.00  0.01  0.00  0.99  0.00  0.00  0.00  0.15  0.00
  YS02001641YS02001644    1.00   0.00  0.01  0.00  0.99  0.00  0.00  0.00  0.00  0.00
  YS02001644YS02001647    1.00   0.00  0.17  0.00  0.83  0.00  0.00  0.00  0.00  0.00
  YS02001647YS02001649    1.00   0.00  0.16  0.00  0.57  0.26  0.00  0.00  0.55  0.00
  YS02001649YS02001757    1.00   0.00  0.00  0.00  0.88  0.12  0.00  0.00  0.42  0.00
  YS02001652YS02001649    1.00   0.00  0.00  0.00  0.97  0.03  0.00  0.00  0.72  0.00
  YS02001655YS02001652    1.00   0.00  0.00  0.00  0.21  0.01  0.00  0.78  0.04  0.00
  YS02001658YS02001655    1.00   0.00  0.14  0.00  0.70  0.16  0.00  0.00  0.64  0.00
  YS02001661YS02001658    1.00   0.14  0.00  0.00  0.54  0.33  0.00  0.00  0.66  0.00
  YS02001664YS02001661    1.00   0.13  0.00  0.00  0.78  0.09  0.00  0.00  0.84  0.00
  YS02001745YS02001748    1.00   0.00  0.00  0.00  0.14  0.01  0.00  0.86  0.05  0.00
  YS02001748YS02001751    1.00   0.00  0.00  0.00  0.86  0.14  0.00  0.00  0.74  0.00
  YS02001751YS02001754    1.00   0.00  0.00  0.00  0.19  0.01  0.00  0.80  0.02  0.00
  YS02001754YS02001757    1.00   0.00  0.00  0.00  1.00  0.00  0.00  0.00  0.79  0.00
  YS02001757CaochengTiaoxuchi    1.00   0.00  0.00  0.00  1.00  0.00  0.00  0.00  0.61  0.00
  YS02001759YS02001757    1.00   0.00  0.00  0.00  0.99  0.01  0.00  0.00  0.51  0.00
  YS02001762YS02001759    1.00   0.00  0.00  0.00  1.00  0.00  0.00  0.00  0.05  0.00
  YS02001765YS02001762    1.00   0.00  0.00  0.00  1.00  0.00  0.00  0.00  0.65  0.00
  YS02001767YS02001765    1.00   0.00  0.00  0.00  1.00  0.00  0.00  0.00  0.01  0.00
  YS02001770YS02001767    1.00   0.00  0.00  0.00  1.00  0.00  0.00  0.00  0.00  0.00
  YS02001774YS02001770    1.00   0.00  0.13  0.00  0.70  0.00  0.16  0.00  0.03  0.00
  YS02001779YS02001774    1.00   0.00  0.00  0.00  1.00  0.00  0.00  0.00  0.75  0.00
  YS02001783YS02001784    1.00   0.00  0.17  0.00  0.83  0.00  0.00  0.00  0.55  0.00
  YS02001784YS02001785    1.00   0.00  0.00  0.00  1.00  0.00  0.00  0.00  0.16  0.00
  YS02001786YS02001788    1.00   0.00  0.00  0.00  0.80  0.20  0.00  0.00  0.00  0.00
  YS02001788YS02001790    1.00   0.00  0.00  0.00  0.21  0.79  0.00  0.00  0.79  0.00
  YS02001790YS02001791    1.00   0.00  0.00  0.00  0.01  0.99  0.00  0.00  0.16  0.00
  YS02001791YS02001793    1.00   0.00  0.00  0.00  0.00  1.00  0.00  0.00  0.01  0.00
  YS02001793JiankangQianchi    1.00   0.00  0.00  0.00  0.95  0.05  0.00  0.00  0.97  0.00
  YS02001882YS02001884    1.00   0.15  0.01  0.00  0.84  0.00  0.00  0.00  0.00  0.00
  YS02001884YS02001887    1.00   0.06  0.05  0.00  0.89  0.00  0.00  0.00  0.00  0.00
  YS02001887YS02001890    1.00   0.00  0.00  0.00  0.97  0.00  0.03  0.00  0.00  0.00
  YS02001890YS02001895    1.00   0.00  0.16  0.00  0.84  0.00  0.00  0.00  0.00  0.00
  YS02001895YS02001898    1.00   0.16  0.00  0.00  0.82  0.00  0.02  0.00  0.00  0.00
  YS02001898YS02001901    1.00   0.16  0.00  0.00  0.84  0.00  0.00  0.00  0.01  0.00
  YS02001901YS02001904    1.00   0.16  0.00  0.00  0.84  0.00  0.00  0.00  0.00  0.00
  YS02001904YS02001907    1.00   0.00  0.16  0.00  0.84  0.00  0.00  0.00  0.00  0.00
  YS02001907YS02006553    1.00   0.00  0.02  0.00  0.98  0.00  0.00  0.00  0.00  0.00
  YS02001910YS02001907    1.00   0.00  0.00  0.00  0.97  0.00  0.00  0.03  0.12  0.00
  YS02001915YS02001910    1.00   0.00  0.00  0.00  0.97  0.03  0.00  0.00  0.15  0.00
  YS02001918YS02001915    1.00   0.00  0.01  0.00  0.98  0.02  0.00  0.00  0.73  0.00
  YS02001920YS02001918    1.00   0.00  0.01  0.00  0.99  0.00  0.00  0.00  0.00  0.00
  YS02001923YS02001920    1.00   0.00  0.00  0.00  1.00  0.00  0.00  0.00  0.90  0.00
  YS02001926YS02001923    1.00   0.00  0.07  0.00  0.08  0.00  0.85  0.00  0.00  0.00
  YS02001929YS02001926    1.00   0.00  0.13  0.00  0.87  0.00  0.00  0.00  0.80  0.00
  YS02006553YS02006556    1.00   0.01  0.00  0.00  0.99  0.00  0.00  0.00  0.03  0.00
  YS02006556YS02006558    1.00   0.00  0.00  0.00  1.00  0.00  0.00  0.00  0.00  0.00
  YS02006558YS02006561    1.00   0.17  0.00  0.00  0.07  0.76  0.00  0.00  0.18  0.00
  YS02006561YS02001783    1.00   0.17  0.00  0.00  0.11  0.72  0.00  0.00  0.67  0.00
  YS02163301YS02001633    1.00   0.00  0.15  0.00  0.85  0.00  0.00  0.00  0.00  0.00
  YS02163601YS02164001    1.00   0.00  0.08  0.00  0.92  0.00  0.00  0.00  0.00  0.00
  YS02164001YS02001641    1.00   0.01  0.07  0.00  0.92  0.00  0.00  0.00  0.05  0.00
  
  
  *************************
  Conduit Surcharge Summary
  *************************
  
  ----------------------------------------------------------------------------
                                                           Hours        Hours 
                         --------- Hours Full --------   Above Full   Capacity
  Conduit                Both Ends  Upstream  Dnstream   Normal Flow   Limited
  ----------------------------------------------------------------------------
  WS02003072WS02003073        0.01      0.01      0.01      1.20         0.01
  WS02004404WS02004405        0.01      0.01      0.01      4.28         0.01
  WS02004405WS02004406        0.01      0.01      0.01      0.76         0.01
  WS02006109WS02006110        0.80      0.80      2.11      0.90         0.01
  WS02006110WS02006113        0.01      0.01      2.05      0.01         0.01
  WS02006111WS02006112        0.01      0.01      2.77      0.01         0.01
  WS02006112WS02006115        0.01      0.01      0.82      0.01         0.01
  WS02006228WS02006109        2.02      2.12      2.02      3.27         2.02
  WS02006229WS02006228        2.01      2.02      2.01      2.70         2.00
  WS02006230WS02006229        2.28      2.61      2.28      4.80         2.28
  WS02006231WS02006230        0.81      0.81      0.95      4.55         0.01
  WS02006232WS02006231        0.91      0.91      2.12      0.97         0.01
  WS02006234WS02006232        1.97      1.97      2.12      0.96         0.96
  WS02006235WS02006234        1.16      1.16      1.99      4.41         0.02
  WS02006238WS02006235        2.01      2.01      2.13      0.01         0.01
  WS02006239WS02006238        2.05      2.09      2.05      2.45         1.91
  WS02006240WS02006239        1.99      2.03      2.00      2.44         1.80
  WS02006242WS02006240        2.01      2.01      2.26      2.72         0.01
  WS02006243WS02006242        2.03      2.03      2.14      0.01         0.03
  WS02006245WS02006243        2.01      2.02      2.02      1.58         1.21
  WS02006247WS02006245        2.01      2.06      2.01      4.04         2.00
  WS02006248WS02006247        2.01      2.01      2.03      0.01         0.03
  WS02006249WS02006248        1.99      1.99      2.01      4.01         0.01
  WS02006251WS02006249        2.01      2.02      2.01      2.53         1.95
  WS02006252WS02006251        2.60      2.60      2.60      2.60         0.01
  WS02006256WS02006235        4.44      4.48      5.99      1.35         0.01
  YS02001580YS02001583        0.80      0.80      0.85      0.01         0.01
  YS02001583YS02001586        0.80      0.80      0.94      0.01         0.01
  YS02001586YS02001590        0.95      0.95      1.03      0.01         0.01
  YS02001590YS02001593        1.03      1.03      1.05      1.07         0.01
  YS02001593YS02001596        1.04      1.04      1.15      0.01         0.01
  YS02001596YS02001600        1.21      1.21      1.32      0.01         0.01
  YS02001600YS02001601        1.38      1.38      1.60      0.01         0.01
  YS02001601YS02001602        1.51      1.51      1.63      1.30         0.01
  YS02001602YS02001605        1.47      1.47      1.51      2.38         0.01
  YS02001605YS02001607        1.44      1.47      1.44      1.56         1.44
  YS02001607YS02001610        1.03      1.03      1.06      0.01         0.01
  YS02001610YS02001613        1.03      1.03      1.06      0.01         0.01
  YS02001613YS02001616        0.98      0.98      1.03      0.01         0.01
  YS02001616YS02001619        0.96      0.96      0.98      0.08         0.11
  YS02001619YS02001622        0.96      0.96      0.96      0.98         0.90
  YS02001622YS02001625        0.96      0.96      1.17      0.01         0.01
  YS02001625YS02001629        0.92      0.92      1.17      0.01         0.01
  YS02001629YS02163301        1.17      1.17      1.18      0.06         0.12
  YS02001633YS02163601        1.21      1.21      1.25      0.26         0.27
  YS02001641YS02001644        1.13      1.16      1.13      1.66         1.12
  YS02001644YS02001647        0.90      0.90      1.13      0.03         0.01
  YS02001647YS02001649        0.90      0.90      1.05      0.01         0.01
  YS02001649YS02001757        1.05      1.05      1.13      0.09         0.04
  YS02001652YS02001649        0.86      0.86      1.05      0.01         0.01
  YS02001655YS02001652        0.65      0.65      0.84      0.01         0.01
  YS02001658YS02001655        0.36      0.36      0.65      0.01         0.01
  YS02001661YS02001658        0.12      0.12      0.36      0.01         0.01
  YS02001664YS02001661        0.01      0.01      0.18      0.01         0.01
  YS02001745YS02001748        0.01      0.01      0.29      0.01         0.01
  YS02001748YS02001751        0.34      0.34      0.50      0.01         0.01
  YS02001751YS02001754        0.50      0.50      0.75      0.01         0.01
  YS02001754YS02001757        0.80      0.80      1.13      0.01         0.01
  YS02001757CaochengTiaoxuchi        1.13      1.13      2.02      0.45         0.41
  YS02001759YS02001757        1.04      1.04      1.13      0.01         0.02
  YS02001762YS02001759        1.00      1.00      1.04      0.01         0.02
  YS02001765YS02001762        0.95      0.95      1.00      0.01         0.01
  YS02001767YS02001765        0.92      0.92      0.95      0.01         0.02
  YS02001770YS02001767        0.91      0.91      0.92      0.67         0.57
  YS02001774YS02001770        0.88      0.88      0.98      0.01         0.01
  YS02001779YS02001774        0.74      0.74      0.98      0.01         0.01
  YS02001783YS02001784        0.65      0.68      0.65      0.84         0.65
  YS02001784YS02001785        0.53      0.65      0.53      1.11         0.53
  YS02001786YS02001788        0.01      0.53      0.01      0.95         0.01
  YS02001790YS02001791        0.01      0.01      0.01      0.63         0.01
  YS02001793JiankangQianchi        0.01      0.01      7.50      0.01         0.01
  YS02001882YS02001884        0.61      0.61      0.63      0.01         0.01
  YS02001884YS02001887        0.65      0.65      0.66      0.01         0.01
  YS02001887YS02001890        0.68      0.68      0.69      0.19         0.01
  YS02001890YS02001895        0.60      0.60      0.71      0.01         0.01
  YS02001895YS02001898        0.59      0.59      0.60      0.01         0.01
  YS02001898YS02001901        0.60      0.60      0.65      0.01         0.01
  YS02001901YS02001904        0.64      0.64      0.65      0.01         0.01
  YS02001904YS02001907        0.64      0.64      0.93      0.01         0.01
  YS02001907YS02006553        1.12      1.12      1.19      0.01         0.01
  YS02001910YS02001907        0.71      0.71      0.91      0.06         0.06
  YS02001915YS02001910        0.61      0.61      0.71      0.01         0.01
  YS02001918YS02001915        0.52      0.52      0.61      0.01         0.01
  YS02001920YS02001918        0.52      0.52      0.53      0.01         0.01
  YS02001923YS02001920        0.47      0.47      0.53      0.01         0.01
  YS02001926YS02001923        0.21      0.21      0.23      0.01         0.01
  YS02001929YS02001926        0.08      0.08      0.23      0.01         0.01
  YS02006553YS02006556        0.81      0.81      0.94      0.01         0.01
  YS02006556YS02006558        0.88      0.88      0.95      0.01         0.01
  YS02006558YS02006561        0.55      0.80      0.55      1.05         0.55
  YS02006561YS02001783        0.47      0.47      0.68      0.01         0.01
  YS02163301YS02001633        1.18      1.18      1.23      0.01         0.01
  YS02163601YS02164001        1.16      1.16      1.25      0.08         0.01
  YS02164001YS02001641        1.16      1.16      1.16      0.73         0.68
  
  
  ***************
  Pumping Summary
  ***************
  
  ---------------------------------------------------------------------------------------------------------
                                                  Min       Avg       Max     Total     Power    % Time Off
                        Percent   Number of      Flow      Flow      Flow    Volume     Usage    Pump Curve
  Pump                 Utilized   Start-Ups       LPS       LPS       LPS  10^6 ltr     Kw-hr    Low   High
  ---------------------------------------------------------------------------------------------------------
  CC-R1                   21.24           4      0.00    683.00    683.00     4.178     79.44    0.0   13.9
  CC-R2                   18.22           3      0.00    683.00    683.00     3.584     68.79    0.0   10.4
  CC-S1                   46.75           9      0.00    200.00    200.00     2.693     15.46    0.0    0.0
  CC-S2                   36.73          11      0.00    200.00    200.00     2.116     12.16    0.0    0.0
  JK-R1                    6.83          15      0.00   1000.00   1000.00     1.968     20.56    0.0    0.0
  JK-R2                    4.22           8      0.00   1000.00   1000.00     1.216     11.54    0.0    0.0
  JK-S                    16.79          15      0.00    300.00    300.00     1.451     22.25    0.0    0.0
  

  Analysis begun on:  Wed Jan 15 10:34:25 2025
  Analysis ended on:  Wed Jan 15 10:34:27 2025
  Total elapsed time: 00:00:02