
  EPA STORM WATER MANAGEMENT MODEL - VERSION 5.2 (Build 5.2.4)
  PYSWMM TOOLKIT API - VERSION v1.0 (2023-11-27)
  ------------------------------------------------------------

  WARNING 04: minimum elevation drop used for Conduit WS02004404WS02004405
  WARNING 03: negative offset ignored for Link YS02001904YS02001907
  
  ****************
  Analysis Options
  ****************
  Flow Units ............... LPS
  Process Models:
    Rainfall/Runoff ........ YES
    RDII ................... NO
    Snowmelt ............... NO
    Groundwater ............ NO
    Flow Routing ........... YES
    Ponding Allowed ........ NO
    Water Quality .......... NO
  Infiltration Method ...... HORTON
  Flow Routing Method ...... DYNWAVE
  Surcharge Method ......... EXTRAN
  Starting Date ............ 08/28/2015 08:00:00
  Ending Date .............. 08/28/2015 16:00:00
  Antecedent Dry Days ...... 8.0
  Report Time Step ......... 00:01:00
  Wet Time Step ............ 00:01:00
  Dry Time Step ............ 00:01:00
  Routing Time Step ........ 30.00 sec
  Variable Time Step ....... YES
  Maximum Trials ........... 8
  Number of Threads ........ 4
  Head Tolerance ........... 0.001500 m
  
  
  **************************        Volume         Depth
  Runoff Quantity Continuity     hectare-m            mm
  **************************     ---------       -------
  Total Precipitation ......         2.069        62.383
  Evaporation Loss .........         0.000         0.000
  Infiltration Loss ........         0.102         3.064
  Surface Runoff ...........         1.935        58.335
  Final Storage ............         0.033         0.996
  Continuity Error (%) .....        -0.019
  
  
  **************************        Volume        Volume
  Flow Routing Continuity        hectare-m      10^6 ltr
  **************************     ---------     ---------
  Dry Weather Inflow .......         0.025         0.251
  Wet Weather Inflow .......         1.935        19.347
  Groundwater Inflow .......         0.000         0.000
  RDII Inflow ..............         0.000         0.000
  External Inflow ..........         0.083         0.834
  External Outflow .........         1.513        15.132
  Flooding Loss ............         0.578         5.784
  Evaporation Loss .........         0.000         0.000
  Exfiltration Loss ........         0.000         0.000
  Initial Stored Volume ....         0.243         2.431
  Final Stored Volume ......         0.200         1.996
  Continuity Error (%) .....        -0.217
  
  
  *************************
  Highest Continuity Errors
  *************************
  Node YS02001884 (4.98%)
  Node YS02001583 (-4.30%)
  
  
  ***************************
  Time-Step Critical Elements
  ***************************
  Link WS02006252WS02006251 (49.67%)
  Link WS02004404WS02004405 (11.74%)
  Link WS02006238WS02006235 (11.45%)
  Link YS02001791YS02001793 (8.50%)
  Link WS02006235WS02006234 (6.29%)
  
  
  ********************************
  Highest Flow Instability Indexes
  ********************************
  Link WS02006113WS02006111 (52)
  Link WS02006111WS02006112 (25)
  Link WS02006252WS02006251 (15)
  Link WS02006238WS02006235 (13)
  Link WS02006256WS02006235 (12)
  
  
  *********************************
  Most Frequent Nonconverging Nodes
  *********************************
  Node CC-1 (8.45%)
  Node CC-2 (8.45%)
  Node JK-1 (8.45%)
  Node JK-2 (8.45%)
  Node WSC (8.45%)
  
  
  *************************
  Routing Time Step Summary
  *************************
  Minimum Time Step           :     0.01 sec
  Average Time Step           :     1.88 sec
  Maximum Time Step           :     7.04 sec
  % of Time in Steady State   :     0.00
  Average Iterations per Step :     2.81
  % of Steps Not Converging   :     8.45
  Time Step Frequencies       :
     30.000 - 13.228 sec      :     0.00 %
     13.228 -  5.833 sec      :     7.58 %
      5.833 -  2.572 sec      :    17.72 %
      2.572 -  1.134 sec      :    20.27 %
      1.134 -  0.500 sec      :    54.43 %
  
  
  ***************************
  Subcatchment Runoff Summary
  ***************************
  
  ------------------------------------------------------------------------------------------------------------------------------
                            Total      Total      Total      Total     Imperv       Perv      Total       Total     Peak  Runoff
                           Precip      Runon       Evap      Infil     Runoff     Runoff     Runoff      Runoff   Runoff   Coeff
  Subcatchment                 mm         mm         mm         mm         mm         mm         mm    10^6 ltr      LPS
  ------------------------------------------------------------------------------------------------------------------------------
  sub60                     62.38       0.00       0.00       1.82      53.69       5.67      59.36        0.78   526.81   0.952
  sub61                     62.38       0.00       0.00       2.64      50.65       7.97      58.61        1.08   732.74   0.940
  sub62                     62.38       0.00       0.00       1.21      56.10       3.78      59.89        1.64  1035.10   0.960
  sub63                     62.38       0.00       0.00       4.92      43.32      13.17      56.50        1.28   838.40   0.906
  sub64                     62.38       0.00       0.00       2.48      51.82       6.88      58.70        1.41   851.49   0.941
  sub65                     62.38       0.00       0.00       2.15      53.02       5.96      58.98        1.62   951.87   0.945
  sub66                     62.38       0.00       0.00       6.13      43.21      11.96      55.17        2.57  1290.88   0.884
  sub67                     62.38       0.00       0.00       1.16      56.15       3.83      59.98        1.12   782.80   0.961
  sub68                     62.38       0.00       0.00       2.19      52.46       6.55      59.01        1.62  1061.45   0.946
  sub69                     62.38       0.00       0.00       1.98      52.91       7.38      60.29        2.23  1265.00   0.967
  sub70                     62.38       0.00       0.00       6.63      41.00      14.58      55.58        1.61   725.81   0.891
  sub71                     62.38       0.00       0.00       1.25      56.06       3.75      59.81        1.56   918.33   0.959
  sub72                     62.38       0.00       0.00       1.11      56.61       3.26      59.87        0.82   450.60   0.960
  
  
  ******************
  Node Depth Summary
  ******************
  
  ---------------------------------------------------------------------------------
                                 Average  Maximum  Maximum  Time of Max    Reported
                                   Depth    Depth      HGL   Occurrence   Max Depth
  Node                 Type       Meters   Meters   Meters  days hr:min      Meters
  ---------------------------------------------------------------------------------
  WS02003060           JUNCTION     0.25     0.38     5.32     0  03:28        0.38
  WS02003066           JUNCTION     0.21     0.30     5.85     0  03:27        0.30
  WS02003067           JUNCTION     0.53     0.70     6.02     0  03:27        0.70
  WS02003069           JUNCTION     0.28     0.43     5.01     0  03:28        0.43
  WS02003072           JUNCTION     0.34     0.50     4.87     0  03:28        0.50
  WS02003073           JUNCTION     0.20     0.30     4.36     0  03:29        0.30
  WS02004401           JUNCTION     0.61     0.85     6.85     0  03:25        0.85
  WS02004402           JUNCTION     0.65     0.88     6.84     0  03:25        0.88
  WS02004403           JUNCTION     0.67     0.89     6.82     0  03:26        0.89
  WS02004404           JUNCTION     0.74     0.96     6.81     0  03:26        0.96
  WS02004405           JUNCTION     0.74     0.96     6.81     0  03:26        0.96
  WS02004406           JUNCTION     0.75     0.96     6.79     0  03:26        0.96
  WS02004407           JUNCTION     0.19     0.30     6.61     0  03:26        0.30
  WS02004409           JUNCTION     0.42     0.67     6.44     0  03:26        0.67
  WS02004410           JUNCTION     0.45     0.68     6.40     0  03:27        0.68
  WS02004411           JUNCTION     0.47     0.69     6.37     0  03:27        0.69
  WS02004412           JUNCTION     0.49     0.70     6.34     0  03:27        0.70
  WS02004413           JUNCTION     0.65     0.86     6.33     0  03:27        0.86
  WS02006109           JUNCTION     0.68     2.55     9.17     0  02:17        2.55
  WS02006110           JUNCTION     0.68     2.10     8.69     0  02:17        2.10
  WS02006111           JUNCTION     0.19     0.29     6.99     0  02:07        0.29
  WS02006112           JUNCTION     0.77     1.08     6.96     0  02:28        1.05
  WS02006113           JUNCTION     0.29     0.46     7.35     0  02:17        0.46
  WS02006115           JUNCTION     0.50     0.75     6.89     0  03:25        0.75
  WS02006116           JUNCTION     0.58     0.83     6.87     0  03:25        0.83
  WS02006228           JUNCTION     0.67     2.30     8.95     0  02:17        2.30
  WS02006229           JUNCTION     0.64     1.95     8.64     0  02:17        1.95
  WS02006230           JUNCTION     0.64     1.63     8.38     0  02:46        1.16
  WS02006231           JUNCTION     0.44     1.80     8.92     0  02:57        0.93
  WS02006232           JUNCTION     0.58     1.50     8.54     0  02:57        1.12
  WS02006234           JUNCTION     0.50     1.56     8.71     0  02:12        1.17
  WS02006235           JUNCTION     0.54     1.49     8.65     0  02:16        1.28
  WS02006238           JUNCTION     0.57     1.54     8.68     0  02:16        1.32
  WS02006239           JUNCTION     0.54     1.55     8.76     0  02:16        1.33
  WS02006240           JUNCTION     0.50     1.52     8.81     0  02:16        1.30
  WS02006242           JUNCTION     0.57     1.55     8.82     0  02:16        1.36
  WS02006243           JUNCTION     0.48     1.39     8.81     0  02:16        1.25
  WS02006245           JUNCTION     0.47     1.30     8.78     0  02:16        1.20
  WS02006247           JUNCTION     0.50     1.25     8.75     0  02:16        1.21
  WS02006248           JUNCTION     0.45     1.10     8.69     0  02:14        1.10
  WS02006249           JUNCTION     0.48     1.09     8.69     0  02:04        1.09
  WS02006251           JUNCTION     0.48     1.41     9.08     0  02:14        1.13
  WS02006252           JUNCTION     0.36     1.50     9.74     0  00:00        0.69
  WS02006256           JUNCTION     0.98     2.35     9.28     0  00:00        2.35
  WSF200               JUNCTION     0.18     0.29     5.52     0  03:28        0.29
  YS02001580           JUNCTION     0.08     1.05     9.59     0  02:12        0.93
  YS02001583           JUNCTION     0.11     1.14     9.64     0  02:12        1.14
  YS02001586           JUNCTION     0.17     1.13     9.30     0  02:12        1.13
  YS02001590           JUNCTION     0.26     1.40     9.26     0  02:12        1.40
  YS02001593           JUNCTION     0.20     1.31     9.17     0  02:12        1.31
  YS02001596           JUNCTION     0.27     1.68     9.09     0  02:12        1.66
  YS02001600           JUNCTION     0.32     1.87     9.00     0  02:12        1.87
  YS02001601           JUNCTION     0.51     2.06     8.90     0  02:11        2.06
  YS02001602           JUNCTION     0.42     1.87     8.77     0  02:11        1.87
  YS02001605           JUNCTION     0.39     1.78     8.68     0  02:42        1.77
  YS02001607           JUNCTION     0.39     1.68     8.53     0  02:25        1.68
  YS02001610           JUNCTION     0.44     1.68     8.48     0  02:15        1.68
  YS02001613           JUNCTION     0.40     1.69     8.53     0  02:25        1.69
  YS02001616           JUNCTION     0.33     1.61     8.52     0  02:17        1.61
  YS02001619           JUNCTION     0.30     1.61     8.54     0  02:17        1.61
  YS02001622           JUNCTION     0.29     1.59     8.50     0  02:17        1.59
  YS02001625           JUNCTION     0.57     1.78     8.38     0  02:16        1.78
  YS02001629           JUNCTION     0.41     1.85     8.40     0  02:17        1.85
  YS02001633           JUNCTION     0.49     2.08     8.53     0  02:17        2.08
  YS02001641           JUNCTION     0.48     2.01     8.45     0  02:19        2.01
  YS02001644           JUNCTION     0.47     1.92     8.35     0  02:18        1.92
  YS02001647           JUNCTION     0.26     1.78     8.39     0  02:25        1.78
  YS02001649           JUNCTION     0.30     1.99     8.38     0  02:25        1.96
  YS02001652           JUNCTION     0.20     1.83     8.42     0  02:23        1.81
  YS02001655           JUNCTION     0.15     1.63     8.48     0  02:23        1.60
  YS02001658           JUNCTION     0.11     1.44     8.59     0  02:18        1.36
  YS02001661           JUNCTION     0.14     1.18     8.59     0  02:23        1.09
  YS02001664           JUNCTION     0.05     0.53     8.46     0  02:24        0.52
  YS02001745           JUNCTION     0.06     0.81     8.32     0  02:24        0.80
  YS02001748           JUNCTION     0.10     1.38     8.45     0  02:20        1.24
  YS02001751           JUNCTION     0.13     1.52     8.40     0  02:20        1.45
  YS02001754           JUNCTION     0.17     1.80     8.41     0  02:25        1.80
  YS02001757           JUNCTION     0.32     2.09     8.35     0  02:25        2.09
  YS02001759           JUNCTION     0.26     2.17     8.53     0  02:25        2.17
  YS02001762           JUNCTION     0.25     2.10     8.50     0  02:25        2.10
  YS02001765           JUNCTION     0.23     2.04     8.49     0  02:25        2.04
  YS02001767           JUNCTION     0.23     2.00     8.49     0  02:25        2.00
  YS02001770           JUNCTION     0.24     1.95     8.44     0  02:19        1.95
  YS02001774           JUNCTION     0.31     2.05     8.47     0  02:19        2.05
  YS02001779           JUNCTION     0.16     1.68     8.37     0  02:16        1.68
  YS02001783           JUNCTION     0.21     1.28     7.42     0  02:25        1.22
  YS02001784           JUNCTION     0.22     1.14     7.21     0  02:25        1.14
  YS02001786           JUNCTION     0.19     0.90     6.93     0  02:25        0.87
  YS02001788           JUNCTION     0.14     0.62     6.60     0  02:24        0.62
  YS02001790           JUNCTION     0.16     0.73     6.38     0  02:24        0.71
  YS02001791           JUNCTION     0.10     0.44     5.91     0  02:24        0.44
  YS02001793           JUNCTION     0.05     0.31     5.14     0  02:20        0.31
  YS02001882           JUNCTION     0.27     1.73     8.45     0  02:25        1.73
  YS02001884           JUNCTION     0.36     1.78     8.40     0  02:25        1.78
  YS02001887           JUNCTION     0.44     1.96     8.50     0  02:25        1.96
  YS02001890           JUNCTION     0.47     1.81     8.32     0  02:17        1.81
  YS02001895           JUNCTION     0.24     1.57     8.32     0  02:29        1.57
  YS02001898           JUNCTION     0.25     1.58     8.31     0  02:29        1.56
  YS02001901           JUNCTION     0.36     1.69     8.30     0  02:29        1.68
  YS02001904           JUNCTION     0.34     1.64     8.27     0  02:29        1.64
  YS02001907           JUNCTION     0.67     1.96     8.25     0  02:17        1.96
  YS02001910           JUNCTION     0.46     2.05     8.55     0  02:25        2.05
  YS02001915           JUNCTION     0.27     2.00     8.72     0  02:25        2.00
  YS02001918           JUNCTION     0.14     1.81     8.88     0  02:18        1.60
  YS02001920           JUNCTION     0.22     2.10     9.10     0  02:18        1.58
  YS02001923           JUNCTION     0.10     2.01     9.27     0  02:18        1.27
  YS02001926           JUNCTION     0.14     1.90     9.35     0  02:18        1.19
  YS02001929           JUNCTION     0.08     1.76     9.45     0  02:18        0.86
  YS02006553           JUNCTION     0.67     1.99     8.28     0  02:25        1.98
  YS02006556           JUNCTION     0.65     2.13     8.44     0  02:25        2.13
  YS02006558           JUNCTION     0.69     2.23     8.49     0  02:25        2.23
  YS02006561           JUNCTION     0.13     0.96     7.62     0  02:25        0.89
  YS02163301           JUNCTION     0.43     1.98     8.50     0  02:17        1.98
  YS02163601           JUNCTION     0.53     2.08     8.48     0  02:17        2.08
  YS02164001           JUNCTION     0.46     2.04     8.50     0  02:19        2.04
  CC-1                 OUTFALL      0.00     0.00     0.00     0  00:00        0.00
  CC-2                 OUTFALL      0.00     0.00     0.00     0  00:00        0.00
  JK-1                 OUTFALL      0.00     0.00     0.00     0  00:00        0.00
  JK-2                 OUTFALL      0.00     0.00     0.00     0  00:00        0.00
  WSC                  OUTFALL      0.20     0.30     0.97     0  03:29        0.30
  CC-storage           STORAGE      0.86     1.71     7.21     0  02:46        1.71
  JK-storage           STORAGE      3.09     4.23     5.03     0  02:16        4.20
  
  
  *******************
  Node Inflow Summary
  *******************
  
  -------------------------------------------------------------------------------------------------
                                  Maximum  Maximum                  Lateral       Total        Flow
                                  Lateral    Total  Time of Max      Inflow      Inflow     Balance
                                   Inflow   Inflow   Occurrence      Volume      Volume       Error
  Node                 Type           LPS      LPS  days hr:min    10^6 ltr    10^6 ltr     Percent
  -------------------------------------------------------------------------------------------------
  WS02003060           JUNCTION     16.53   552.70     0  03:28       0.476        5.87       0.060
  WS02003066           JUNCTION      0.00   536.17     0  03:27           0         5.4       0.034
  WS02003067           JUNCTION      0.00   536.18     0  03:27           0         5.4       0.090
  WS02003069           JUNCTION      0.32   553.01     0  03:28     0.00922        5.88       0.099
  WS02003072           JUNCTION      0.00   553.00     0  03:28           0        5.87       0.157
  WS02003073           JUNCTION      1.82   554.82     0  03:29      0.0524        5.91       0.130
  WS02004401           JUNCTION      0.00   537.87     0  02:59           0        5.52       0.208
  WS02004402           JUNCTION      0.00   537.02     0  02:24           0        5.51       0.209
  WS02004403           JUNCTION      0.00   536.67     0  02:24           0         5.5       0.202
  WS02004404           JUNCTION      0.16   536.61     0  03:26     0.00467        5.49       0.166
  WS02004405           JUNCTION      0.04   536.65     0  03:26      0.0011        5.48       0.248
  WS02004406           JUNCTION      0.00   536.70     0  03:26           0        5.47       0.409
  WS02004407           JUNCTION      0.00   536.49     0  03:26           0        5.45       0.037
  WS02004409           JUNCTION      0.00   536.39     0  03:26           0        5.45       0.081
  WS02004410           JUNCTION      0.00   536.28     0  03:26           0        5.44       0.113
  WS02004411           JUNCTION      0.00   536.22     0  03:27           0        5.44       0.134
  WS02004412           JUNCTION      0.00   536.20     0  03:27           0        5.43       0.170
  WS02004413           JUNCTION      0.00   536.20     0  03:27           0        5.42       0.289
  WS02006109           JUNCTION      1.23   563.64     0  02:46      0.0354        5.58       0.210
  WS02006110           JUNCTION      0.00   578.88     0  02:17           0        5.57       0.128
  WS02006111           JUNCTION      0.00   562.04     0  02:17           0        5.56       0.019
  WS02006112           JUNCTION      0.00   544.05     0  02:07           0        5.55       0.337
  WS02006113           JUNCTION      0.00   606.69     0  02:17           0        5.56       0.042
  WS02006115           JUNCTION      0.00   566.22     0  02:17           0        5.54       0.142
  WS02006116           JUNCTION      0.00   544.91     0  02:18           0        5.53       0.125
  WS02006228           JUNCTION      0.00   560.36     0  02:46           0        5.55       0.092
  WS02006229           JUNCTION      0.00   560.37     0  02:46           0        5.55       0.089
  WS02006230           JUNCTION     10.28   588.74     0  02:57       0.296        5.56       0.079
  WS02006231           JUNCTION      0.00   586.66     0  02:16           0        5.26       0.004
  WS02006232           JUNCTION      0.00   585.14     0  02:16           0        5.27       0.187
  WS02006234           JUNCTION      0.00   577.54     0  02:16           0        5.26      -0.134
  WS02006235           JUNCTION      0.00   567.01     0  02:16           0        5.35       0.153
  WS02006238           JUNCTION      0.00   425.82     0  02:50           0         4.4      -0.094
  WS02006239           JUNCTION      0.00   423.71     0  02:55           0        4.36      -0.076
  WS02006240           JUNCTION      0.00   421.04     0  02:55           0        4.32      -0.038
  WS02006242           JUNCTION      0.00   421.95     0  02:55           0        4.29      -0.020
  WS02006243           JUNCTION      0.00   421.23     0  02:55           0        4.27      -0.089
  WS02006245           JUNCTION      0.00   421.46     0  02:15           0        4.27       0.162
  WS02006247           JUNCTION      0.00   421.26     0  02:15           0        4.26      -0.023
  WS02006248           JUNCTION      0.00   421.55     0  02:15           0        4.26       0.001
  WS02006249           JUNCTION      0.00   459.02     0  00:00           0        4.49       0.140
  WS02006251           JUNCTION      0.08   408.12     0  02:14     0.00222        4.49       0.002
  WS02006252           JUNCTION      0.00   400.00     0  00:00           0        4.48      -0.086
  WS02006256           JUNCTION      0.00   300.00     0  00:00           0        1.41      -0.728
  WSF200               JUNCTION      0.00   536.18     0  03:27           0         5.4       0.017
  YS02001580           JUNCTION      0.00    75.83     0  02:11           0     0.00412       0.526
  YS02001583           JUNCTION      0.00   124.87     0  02:11           0      0.0155      -4.120
  YS02001586           JUNCTION    725.81   725.85     0  02:26        1.61        1.62       0.064
  YS02001590           JUNCTION      0.00   318.58     0  02:25           0         1.3      -0.029
  YS02001593           JUNCTION      0.00   318.61     0  02:42           0         1.3       0.001
  YS02001596           JUNCTION      0.00   318.14     0  02:42           0         1.3      -0.011
  YS02001600           JUNCTION      0.00   318.17     0  02:25           0         1.3       0.020
  YS02001601           JUNCTION   1265.00  1582.68     0  02:26        2.23        3.53       0.023
  YS02001602           JUNCTION      0.00   492.77     0  02:11           0        2.25       0.022
  YS02001605           JUNCTION      0.00   492.64     0  02:11           0        2.14       0.027
  YS02001607           JUNCTION      0.00   492.85     0  02:11           0        2.14       0.090
  YS02001610           JUNCTION      0.00   700.23     0  02:26           0        2.32       0.103
  YS02001613           JUNCTION      0.00   499.93     0  02:10           0         1.9       0.084
  YS02001616           JUNCTION      0.00   499.33     0  02:11           0         1.9       0.025
  YS02001619           JUNCTION   1290.88  1290.88     0  02:26        2.57        4.29      -0.003
  YS02001622           JUNCTION      0.00   940.58     0  02:25           0        4.11       0.005
  YS02001625           JUNCTION      0.00  1339.82     0  02:26           0        4.31       0.222
  YS02001629           JUNCTION      0.00   917.21     0  02:15           0        3.37       0.016
  YS02001633           JUNCTION    952.07  1309.72     0  02:15        1.63        4.79       0.072
  YS02001641           JUNCTION      0.00  1306.58     0  02:15           0        4.59       0.062
  YS02001644           JUNCTION    851.53  1669.41     0  02:15        1.41        5.99       0.057
  YS02001647           JUNCTION      0.00  1670.08     0  02:15           0        5.62       0.009
  YS02001649           JUNCTION      0.00  1854.67     0  02:15           0        6.91       0.005
  YS02001652           JUNCTION      0.00   860.49     0  02:25           0        1.29      -0.063
  YS02001655           JUNCTION      0.15   859.87     0  02:25     0.00443        1.29       0.003
  YS02001658           JUNCTION      0.00   859.55     0  02:25           0        1.28      -0.016
  YS02001661           JUNCTION      0.00   865.96     0  02:25           0        1.28       0.012
  YS02001664           JUNCTION    838.40   838.40     0  02:25        1.28        1.28      -0.009
  YS02001745           JUNCTION    526.81   526.81     0  02:25        0.78        0.78       0.159
  YS02001748           JUNCTION      0.04   536.54     0  02:25      0.0013       0.781      -0.236
  YS02001751           JUNCTION      0.01   534.68     0  02:25    0.000317       0.787       0.061
  YS02001754           JUNCTION      0.26   534.51     0  02:25     0.00749       0.799      -0.170
  YS02001757           JUNCTION      0.00  3095.09     0  02:24           0        10.3       0.013
  YS02001759           JUNCTION    732.78  1283.99     0  02:24        1.08        2.58      -0.008
  YS02001762           JUNCTION      0.00   706.31     0  02:21           0         1.5      -0.006
  YS02001765           JUNCTION      0.00   706.57     0  02:21           0         1.5      -0.003
  YS02001767           JUNCTION      0.54   707.11     0  02:21      0.0154         1.5      -0.000
  YS02001770           JUNCTION   1035.25  1035.25     0  02:25        1.65        1.69      -0.010
  YS02001774           JUNCTION      0.00   520.21     0  02:25           0        0.22       0.470
  YS02001779           JUNCTION      0.01   522.16     0  02:25    0.000144       0.176      -0.278
  YS02001783           JUNCTION      0.00  1166.37     0  02:25           0        3.99       0.003
  YS02001784           JUNCTION      1.06  1167.65     0  02:25      0.0305        4.02       0.014
  YS02001786           JUNCTION      0.06  1168.83     0  02:25     0.00162        4.02       0.016
  YS02001788           JUNCTION      0.07  1170.15     0  02:25     0.00204        4.02       0.008
  YS02001790           JUNCTION      0.15  1177.07     0  02:23     0.00446        4.03       0.015
  YS02001791           JUNCTION      0.00  1298.19     0  02:24           0        4.02      -0.018
  YS02001793           JUNCTION      0.00  1244.72     0  02:23           0        4.03       0.004
  YS02001882           JUNCTION      0.00    33.22     0  02:14           0      0.0125       4.803
  YS02001884           JUNCTION      0.00    37.92     0  02:13           0      0.0483       5.243
  YS02001887           JUNCTION    783.25   790.67     0  02:25        1.13        1.16       0.376
  YS02001890           JUNCTION      0.00   796.41     0  02:25           0        1.12       0.456
  YS02001895           JUNCTION      0.00   520.94     0  02:25           0        1.05       0.145
  YS02001898           JUNCTION      0.00   520.80     0  02:25           0        1.04       0.017
  YS02001901           JUNCTION      0.00   518.22     0  02:28           0        1.05       0.303
  YS02001904           JUNCTION      0.00   517.94     0  02:28           0        1.05       0.274
  YS02001907           JUNCTION      0.00  1900.84     0  02:25           0        3.51       0.514
  YS02001910           JUNCTION      0.00  1384.53     0  02:25           0        2.47       0.288
  YS02001915           JUNCTION    918.34  1383.10     0  02:25        1.56         2.5       0.062
  YS02001918           JUNCTION      0.00   464.09     0  02:25           0       0.951      -0.003
  YS02001920           JUNCTION      2.87   463.84     0  02:25      0.0827       0.938       0.080
  YS02001923           JUNCTION      0.04   465.94     0  02:25     0.00109       0.844      -0.050
  YS02001926           JUNCTION      0.05   467.87     0  02:25      0.0015        0.83      -0.014
  YS02001929           JUNCTION    450.60   450.60     0  02:26       0.823       0.823      -0.067
  YS02006553           JUNCTION      0.00   804.00     0  02:39           0        2.39       0.494
  YS02006556           JUNCTION      0.00   804.07     0  02:39           0        2.39       0.332
  YS02006558           JUNCTION   1062.33  1165.77     0  02:24        1.65        4.02       0.082
  YS02006561           JUNCTION      0.00  1166.50     0  02:25           0        3.99      -0.000
  YS02163301           JUNCTION      0.00   917.13     0  02:15           0        3.37       0.048
  YS02163601           JUNCTION      0.11  1309.29     0  02:15     0.00317        4.59       0.105
  YS02164001           JUNCTION      0.00  1308.93     0  02:15           0        4.58       0.049
  CC-1                 OUTFALL       0.00   683.00     0  00:00           0        3.56       0.000
  CC-2                 OUTFALL       0.00   683.00     0  00:00           0        3.06       0.000
  JK-1                 OUTFALL       0.00  1000.00     0  00:00           0        1.87       0.000
  JK-2                 OUTFALL       0.00  1000.00     0  00:00           0       0.736       0.000
  WSC                  OUTFALL       0.00   554.81     0  03:29           0        5.91       0.000
  CC-storage           STORAGE       0.00  3093.06     0  02:24           0        12.5      -0.215
  JK-storage           STORAGE       0.00  1259.02     0  02:35           0        4.18       0.022
  
  
  **********************
  Node Surcharge Summary
  **********************
  
  Surcharging occurs when water rises above the top of the highest conduit.
  ---------------------------------------------------------------------
                                               Max. Height   Min. Depth
                                   Hours       Above Crown    Below Rim
  Node                 Type      Surcharged         Meters       Meters
  ---------------------------------------------------------------------
  WS02006109           JUNCTION        2.02          1.729        0.091
  WS02006110           JUNCTION        0.75          1.193        0.657
  WS02006112           JUNCTION        0.71          0.081        1.599
  WS02006228           JUNCTION        2.00          1.468        0.732
  WS02006229           JUNCTION        2.03          1.146        1.304
  WS02006230           JUNCTION        0.75          0.550        1.020
  WS02006231           JUNCTION        0.86          1.086        0.444
  WS02006232           JUNCTION        2.15          0.799        0.681
  WS02006234           JUNCTION        1.13          0.836        0.404
  WS02006235           JUNCTION        2.01          0.777        0.513
  WS02006238           JUNCTION        2.08          0.818        0.612
  WS02006239           JUNCTION        2.02          0.814        0.476
  WS02006240           JUNCTION        2.02          0.810        0.580
  WS02006242           JUNCTION        2.13          0.820        0.000
  WS02006243           JUNCTION        2.02          0.679        0.091
  WS02006245           JUNCTION        2.01          0.585        0.265
  WS02006247           JUNCTION        2.03          0.538        0.222
  WS02006248           JUNCTION        1.99          0.380        0.000
  WS02006249           JUNCTION        2.01          0.390        0.000
  WS02006251           JUNCTION        0.91          0.376        0.804
  WS02006252           JUNCTION        2.41          1.100        0.000
  WS02006256           JUNCTION        5.86          2.050        0.000
  YS02001580           JUNCTION        0.59          0.450        0.000
  YS02001583           JUNCTION        0.59          0.500        0.000
  YS02001586           JUNCTION        0.71          0.510        0.000
  YS02001590           JUNCTION        0.79          0.750        0.000
  YS02001593           JUNCTION        0.79          0.690        0.150
  YS02001596           JUNCTION        0.92          0.946        0.124
  YS02001600           JUNCTION        1.06          1.190        0.000
  YS02001601           JUNCTION        1.40          1.440        0.000
  YS02001602           JUNCTION        1.29          1.270        0.000
  YS02001605           JUNCTION        1.24          1.180        0.000
  YS02001607           JUNCTION        0.78          0.680        0.000
  YS02001610           JUNCTION        0.80          0.680        0.000
  YS02001613           JUNCTION        0.77          0.688        0.012
  YS02001616           JUNCTION        0.73          0.610        0.000
  YS02001619           JUNCTION        0.72          0.610        0.000
  YS02001622           JUNCTION        0.71          0.592        0.028
  YS02001625           JUNCTION        0.90          0.780        0.000
  YS02001629           JUNCTION        0.66          0.470        0.000
  YS02001633           JUNCTION        0.93          1.060        0.000
  YS02001641           JUNCTION        0.86          1.013        0.087
  YS02001644           JUNCTION        0.83          0.920        0.000
  YS02001647           JUNCTION        0.61          0.779        0.121
  YS02001649           JUNCTION        0.73          0.986        0.064
  YS02001652           JUNCTION        0.54          0.798        0.332
  YS02001655           JUNCTION        0.40          0.634        0.566
  YS02001658           JUNCTION        0.24          0.445        0.855
  YS02001661           JUNCTION        0.03          0.114        1.276
  YS02001748           JUNCTION        0.18          0.296        0.894
  YS02001751           JUNCTION        0.31          0.522        0.678
  YS02001754           JUNCTION        0.47          0.750        0.400
  YS02001757           JUNCTION        0.79          1.088        0.122
  YS02001759           JUNCTION        0.70          1.170        0.040
  YS02001762           JUNCTION        0.67          1.102        0.048
  YS02001765           JUNCTION        0.63          1.043        0.057
  YS02001767           JUNCTION        0.60          1.001        0.029
  YS02001770           JUNCTION        0.56          0.920        0.000
  YS02001774           JUNCTION        0.65          1.050        0.000
  YS02001779           JUNCTION        0.46          0.680        0.000
  YS02001783           JUNCTION        0.52          0.477        1.123
  YS02001784           JUNCTION        0.50          0.344        1.146
  YS02001786           JUNCTION        0.39          0.100        1.330
  YS02001882           JUNCTION        0.47          0.734        0.096
  YS02001884           JUNCTION        0.48          0.725        0.145
  YS02001887           JUNCTION        0.51          0.909        0.041
  YS02001890           JUNCTION        0.53          0.760        0.000
  YS02001895           JUNCTION        0.46          0.574        0.176
  YS02001898           JUNCTION        0.45          0.550        0.190
  YS02001901           JUNCTION        0.50          0.688        0.182
  YS02001904           JUNCTION        0.49          0.644        0.206
  YS02001907           JUNCTION        0.77          0.950        0.000
  YS02001910           JUNCTION        0.56          1.048        0.052
  YS02001915           JUNCTION        0.46          1.000        0.000
  YS02001918           JUNCTION        0.38          0.810        0.000
  YS02001920           JUNCTION        0.39          1.096        0.044
  YS02001923           JUNCTION        0.07          0.803        0.017
  YS02001926           JUNCTION        0.12          0.900        0.000
  YS02001929           JUNCTION        0.01          0.759        0.021
  YS02006553           JUNCTION        0.79          0.993        0.197
  YS02006556           JUNCTION        0.66          1.091        0.259
  YS02006558           JUNCTION        0.64          1.127        0.273
  YS02006561           JUNCTION        0.34          0.158        0.992
  YS02163301           JUNCTION        0.90          0.984        0.046
  YS02163601           JUNCTION        0.96          1.080        0.000
  YS02164001           JUNCTION        0.87          1.040        0.060
  
  
  *********************
  Node Flooding Summary
  *********************
  
  Flooding refers to all water that overflows a node, whether it ponds or not.
  --------------------------------------------------------------------------
                                                             Total   Maximum
                                 Maximum   Time of Max       Flood    Ponded
                        Hours       Rate    Occurrence      Volume     Depth
  Node                 Flooded       LPS   days hr:min    10^6 ltr    Meters
  --------------------------------------------------------------------------
  WS02006242              0.01      3.29      0  02:16       0.000     0.000
  WS02006248              0.01     45.26      0  02:14       0.000     0.000
  WS02006249              0.89    115.55      0  02:14       0.217     0.000
  WS02006252              0.01    245.63      0  00:00       0.000     0.000
  WS02006256              1.31    293.19      0  00:00       0.423     0.000
  YS02001580              0.01     44.39      0  02:12       0.000     0.000
  YS02001583              0.01     96.39      0  02:12       0.000     0.000
  YS02001586              0.45    408.15      0  02:26       0.310     0.000
  YS02001590              0.01      1.75      0  02:12       0.000     0.000
  YS02001600              0.01      0.60      0  02:12       0.000     0.000
  YS02001601              0.65   1184.86      0  02:26       1.273     0.000
  YS02001602              0.52     62.68      0  02:42       0.108     0.000
  YS02001605              0.01      0.58      0  02:42       0.000     0.000
  YS02001607              0.01      0.32      0  02:25       0.000     0.000
  YS02001610              0.47    699.68      0  02:26       0.604     0.000
  YS02001616              0.01      0.92      0  02:17       0.000     0.000
  YS02001619              0.01      2.67      0  02:24       0.000     0.000
  YS02001625              0.44   1339.80      0  02:26       1.136     0.000
  YS02001629              0.09     24.66      0  02:20       0.003     0.000
  YS02001633              0.01      1.61      0  02:25       0.000     0.000
  YS02001644              0.21    982.23      0  02:25       0.360     0.000
  YS02001770              0.01      9.52      0  02:19       0.000     0.000
  YS02001774              0.01      3.34      0  02:19       0.000     0.000
  YS02001779              0.17    521.50      0  02:25       0.158     0.000
  YS02001890              0.16    274.59      0  02:25       0.071     0.000
  YS02001907              0.33   1825.53      0  02:25       1.121     0.000
  YS02001915              0.01      0.17      0  02:25       0.000     0.000
  YS02001918              0.01     92.84      0  02:18       0.001     0.000
  YS02001926              0.01     56.25      0  02:18       0.000     0.000
  YS02163601              0.01      3.41      0  02:19       0.000     0.000
  
  
  **********************
  Storage Volume Summary
  **********************
  
  ------------------------------------------------------------------------------------------------
                         Average    Avg   Evap  Exfil     Maximum    Max    Time of Max    Maximum
                          Volume   Pcnt   Pcnt   Pcnt      Volume   Pcnt     Occurrence    Outflow
  Storage Unit           1000 m³   Full   Loss   Loss     1000 m³   Full    days hr:min        LPS
  ------------------------------------------------------------------------------------------------
  CC-storage               2.406   37.5    0.0    0.0       4.765   74.3       0  02:46    1783.53
  JK-storage               0.155   53.2    0.0    0.0       0.213   72.9       0  02:16    2300.00
  
  
  ***********************
  Outfall Loading Summary
  ***********************
  
  -----------------------------------------------------------
                         Flow       Avg       Max       Total
                         Freq      Flow      Flow      Volume
  Outfall Node           Pcnt       LPS       LPS    10^6 ltr
  -----------------------------------------------------------
  CC-1                  18.13    683.00    683.00       3.560
  CC-2                  15.27    683.00    683.00       3.057
  JK-1                   7.65   1000.00   1000.00       1.872
  JK-2                   2.96   1000.00   1000.00       0.736
  WSC                   99.96    279.93    554.81       5.907
  -----------------------------------------------------------
  System                28.80   3645.93   3916.56      15.132
  
  
  ********************
  Link Flow Summary
  ********************
  
  -----------------------------------------------------------------------------
                                 Maximum  Time of Max   Maximum    Max/    Max/
                                  |Flow|   Occurrence   |Veloc|    Full    Full
  Link                 Type          LPS  days hr:min     m/sec    Flow   Depth
  -----------------------------------------------------------------------------
  1                    CONDUIT    554.81     0  03:29      2.83    0.19    0.30
  WS02003060WS02003069 CONDUIT    552.69     0  03:28      1.64    0.22    0.34
  WS02003066WSF200     CONDUIT    536.18     0  03:27      2.85    0.09    0.22
  WS02003067WS02003066 CONDUIT    536.17     0  03:27      1.21    0.17    0.42
  WS02003069WS02003072 CONDUIT    553.00     0  03:28      1.37    0.27    0.39
  WS02003072WS02003073 CONDUIT    553.00     0  03:29      1.43    1.19    0.37
  WS02004401WS02004402 CONDUIT    537.02     0  02:24      0.98    0.64    0.86
  WS02004402WS02004403 CONDUIT    536.67     0  02:24      0.97    0.77    0.88
  WS02004403WS02004404 CONDUIT    536.45     0  03:26      0.92    0.39    0.93
  WS02004404WS02004405 CONDUIT    536.61     0  03:26      1.08    5.26    0.96
  WS02004405WS02004406 CONDUIT    536.70     0  03:26      0.99    1.06    0.96
  WS02004406WS02004407 CONDUIT    536.49     0  03:26      1.04    0.24    0.63
  WS02004407WS02004409 CONDUIT    536.39     0  03:26      1.56    0.19    0.48
  WS02004409WS02004410 CONDUIT    536.28     0  03:26      1.04    0.69    0.67
  WS02004410WS02004411 CONDUIT    536.22     0  03:27      0.97    0.73    0.69
  WS02004411WS02004412 CONDUIT    536.20     0  03:27      0.92    0.76    0.69
  WS02004412WS02004413 CONDUIT    536.20     0  03:27      0.82    0.36    0.78
  WS02004413WS02003067 CONDUIT    536.18     0  03:27      1.11    0.23    0.59
  WS02006109WS02006110 CONDUIT    578.88     0  02:17      1.15    1.11    1.00
  WS02006110WS02006113 CONDUIT    606.69     0  02:17      1.46    0.55    0.79
  WS02006111WS02006112 CONDUIT    544.05     0  02:07      1.81    0.26    0.67
  WS02006112WS02006115 CONDUIT    566.22     0  02:17      0.85    0.33    0.87
  WS02006113WS02006111 CONDUIT    562.04     0  02:17      2.48    0.67    0.46
  WS02006115WS02006116 CONDUIT    544.91     0  02:18      1.05    0.70    0.76
  WS02006116WS02004401 CONDUIT    537.87     0  02:59      0.98    0.74    0.84
  WS02006228WS02006109 CONDUIT    562.41     0  02:46      1.12    2.46    1.00
  WS02006229WS02006228 CONDUIT    560.36     0  02:46      1.14    1.86    1.00
  WS02006230WS02006229 CONDUIT    560.37     0  02:46      1.46   12.47    1.00
  WS02006231WS02006230 CONDUIT    578.46     0  02:57      1.59    8.77    1.00
  WS02006232WS02006231 CONDUIT    586.66     0  02:16      1.53    1.23    1.00
  WS02006234WS02006232 CONDUIT    585.14     0  02:16      1.52    1.18    1.00
  WS02006235WS02006234 CONDUIT    577.54     0  02:16      1.50    6.09    1.00
  WS02006238WS02006235 CONDUIT    426.39     0  02:55      1.48    0.95    1.00
  WS02006239WS02006238 CONDUIT    425.82     0  02:50      1.11    1.36    1.00
  WS02006240WS02006239 CONDUIT    423.71     0  02:55      1.24    1.33    1.00
  WS02006242WS02006240 CONDUIT    421.04     0  02:55      1.13    1.67    1.00
  WS02006243WS02006242 CONDUIT    421.95     0  02:55      1.40    0.90    1.00
  WS02006245WS02006243 CONDUIT    421.23     0  02:55      1.45    1.25    1.00
  WS02006247WS02006245 CONDUIT    421.46     0  02:15      1.43    3.34    1.00
  WS02006248WS02006247 CONDUIT    421.26     0  02:15      1.44    0.92    1.00
  WS02006249WS02006248 CONDUIT    421.55     0  02:15      1.36    2.31    1.00
  WS02006251WS02006249 CONDUIT    459.02     0  00:00      1.99    1.32    1.00
  WS02006252WS02006251 CONDUIT    408.04     0  02:14     24.61    1.50    1.00
  WS02006256WS02006235 CONDUIT    288.91     0  00:00      4.23    3.06    1.00
  WSF200WS02003060     CONDUIT    536.17     0  03:28      2.06    0.12    0.28
  YS02001580YS02001583 CONDUIT     75.83     0  02:11      0.53    0.29    1.00
  YS02001583YS02001586 CONDUIT    124.87     0  02:11      0.54    0.19    1.00
  YS02001586YS02001590 CONDUIT    318.58     0  02:25      1.24    0.56    1.00
  YS02001590YS02001593 CONDUIT    318.61     0  02:42      1.13    2.00    1.00
  YS02001593YS02001596 CONDUIT    318.14     0  02:42      1.74    0.50    1.00
  YS02001596YS02001600 CONDUIT    318.17     0  02:25      1.27    0.62    1.00
  YS02001600YS02001601 CONDUIT    318.33     0  02:42      1.13    0.55    1.00
  YS02001601YS02001602 CONDUIT    492.77     0  02:11      1.74    1.78    1.00
  YS02001602YS02001605 CONDUIT    492.64     0  02:11      1.74   10.43    1.00
  YS02001605YS02001607 CONDUIT    492.85     0  02:11      1.74    2.70    1.00
  YS02001607YS02001610 CONDUIT    498.53     0  02:10      0.63    0.47    1.00
  YS02001610YS02001613 CONDUIT    499.93     0  02:10      0.64    0.58    1.00
  YS02001613YS02001616 CONDUIT    499.33     0  02:11      0.64    0.43    1.00
  YS02001616YS02001619 CONDUIT    494.91     0  02:11      0.66    0.86    1.00
  YS02001619YS02001622 CONDUIT    940.58     0  02:25      1.20    1.39    1.00
  YS02001622YS02001625 CONDUIT    941.47     0  02:25      1.20    0.50    1.00
  YS02001625YS02001629 CONDUIT    917.21     0  02:15      1.17    0.44    1.00
  YS02001629YS02163301 CONDUIT    917.13     0  02:15      1.17    1.13    1.00
  YS02001633YS02163601 CONDUIT   1309.18     0  02:15      1.67    1.37    1.00
  YS02001641YS02001644 CONDUIT   1307.90     0  02:15      1.67    4.23    1.00
  YS02001644YS02001647 CONDUIT   1670.08     0  02:15      2.16    0.98    1.00
  YS02001647YS02001649 CONDUIT   1675.19     0  02:15      2.30    0.88    1.00
  YS02001649YS02001757 CONDUIT   1845.18     0  02:16      2.44    1.12    1.00
  YS02001652YS02001649 CONDUIT    860.67     0  02:25      1.10    0.43    1.00
  YS02001655YS02001652 CONDUIT    860.49     0  02:25      1.25    0.42    1.00
  YS02001658YS02001655 CONDUIT    859.72     0  02:25      1.82    0.36    1.00
  YS02001661YS02001658 CONDUIT    859.55     0  02:25      2.19    0.34    1.00
  YS02001664YS02001661 CONDUIT    865.96     0  02:25      2.12    0.27    0.77
  YS02001745YS02001748 CONDUIT    536.49     0  02:25      2.04    0.21    0.90
  YS02001748YS02001751 CONDUIT    534.67     0  02:25      1.61    0.27    1.00
  YS02001751YS02001754 CONDUIT    534.25     0  02:25      1.38    0.26    1.00
  YS02001754YS02001757 CONDUIT    534.51     0  02:25      0.68    0.22    1.00
  YS02001757CaochengTiaoxuchi CONDUIT   3093.06     0  02:24      3.94    1.34    1.00
  YS02001759YS02001757 CONDUIT   1286.12     0  02:24      1.64    0.91    1.00
  YS02001762YS02001759 CONDUIT    706.22     0  02:21      0.90    0.81    1.00
  YS02001765YS02001762 CONDUIT    706.31     0  02:21      0.90    0.66    1.00
  YS02001767YS02001765 CONDUIT    706.57     0  02:21      0.90    0.89    1.00
  YS02001770YS02001767 CONDUIT    706.57     0  02:21      0.90    2.80    1.00
  YS02001774YS02001770 CONDUIT    520.21     0  02:25      0.66    0.33    1.00
  YS02001779YS02001774 CONDUIT    522.15     0  02:25      0.66    0.26    1.00
  YS02001783YS02001784 CONDUIT   1166.59     0  02:25      2.32    1.61    1.00
  YS02001784YS02001785 CONDUIT   1168.77     0  02:25      2.33    2.72    1.00
  YS02001786YS02001788 CONDUIT   1170.08     0  02:25      2.49    2.25    0.89
  YS02001788YS02001790 CONDUIT   1176.91     0  02:23      2.72    0.87    0.84
  YS02001790YS02001791 CONDUIT   1298.19     0  02:24      3.43    1.41    0.71
  YS02001791YS02001793 CONDUIT   1244.72     0  02:23      6.76    0.53    0.45
  YS02001793JiankangQianchi CONDUIT   1259.02     0  02:35      2.51    0.10    0.65
  YS02001882YS02001884 CONDUIT     33.22     0  02:14      0.12    0.04    1.00
  YS02001884YS02001887 CONDUIT     37.92     0  02:13      0.08    0.05    1.00
  YS02001887YS02001890 CONDUIT    796.41     0  02:25      1.01    1.36    1.00
  YS02001890YS02001895 CONDUIT    520.94     0  02:25      0.66    0.24    1.00
  YS02001895YS02001898 CONDUIT    520.80     0  02:25      0.66    0.90    1.00
  YS02001898YS02001901 CONDUIT    518.22     0  02:28      0.66    0.33    1.00
  YS02001901YS02001904 CONDUIT    517.94     0  02:28      0.66    0.80    1.00
  YS02001904YS02001907 CONDUIT    518.57     0  02:25      0.66    0.18    1.00
  YS02001907YS02006553 CONDUIT    804.00     0  02:39      0.89    0.95    1.00
  YS02001910YS02001907 CONDUIT   1386.42     0  02:25      1.77    0.78    1.00
  YS02001915YS02001910 CONDUIT   1384.53     0  02:25      1.76    0.69    1.00
  YS02001918YS02001915 CONDUIT    465.15     0  02:25      0.59    0.26    1.00
  YS02001920YS02001918 CONDUIT    464.09     0  02:25      0.67    0.45    1.00
  YS02001923YS02001920 CONDUIT    460.97     0  02:25      0.69    0.21    1.00
  YS02001926YS02001923 CONDUIT    465.90     0  02:25      0.94    0.67    1.00
  YS02001929YS02001926 CONDUIT    467.82     0  02:25      1.08    0.22    1.00
  YS02006553YS02006556 CONDUIT    804.07     0  02:39      1.02    0.69    1.00
  YS02006556YS02006558 CONDUIT    805.74     0  02:39      1.03    0.64    1.00
  YS02006558YS02006561 CONDUIT   1166.50     0  02:25      4.13    2.58    1.00
  YS02006561YS02001783 CONDUIT   1166.37     0  02:25      2.32    0.60    1.00
  YS02163301YS02001633 CONDUIT    916.99     0  02:15      1.17    0.86    1.00
  YS02163601YS02164001 CONDUIT   1308.93     0  02:15      1.67    1.16    1.00
  YS02164001YS02001641 CONDUIT   1306.58     0  02:15      1.66    1.78    1.00
  CC-R1                PUMP       683.00     0  00:00              1.00
  CC-R2                PUMP       683.00     0  00:00              1.00
  CC-S1                PUMP       200.00     0  00:00              1.00
  CC-S2                PUMP       200.00     0  00:00              1.00
  JK-R1                PUMP      1000.00     0  00:00              1.00
  JK-R2                PUMP      1000.00     0  00:00              1.00
  JK-S                 PUMP       300.00     0  00:00              1.00
  
  
  ***************************
  Flow Classification Summary
  ***************************
  
  -------------------------------------------------------------------------------------
                      Adjusted    ---------- Fraction of Time in Flow Class ---------- 
                       /Actual         Up    Down  Sub   Sup   Up    Down  Norm  Inlet 
  Conduit               Length    Dry  Dry   Dry   Crit  Crit  Crit  Crit  Ltd   Ctrl  
  -------------------------------------------------------------------------------------
  1                       1.00   0.00  0.00  0.00  0.00  1.00  0.00  0.00  0.46  0.00
  WS02003060WS02003069    1.00   0.00  0.00  0.00  0.98  0.02  0.00  0.00  0.65  0.00
  WS02003066WSF200        1.00   0.13  0.00  0.00  0.00  0.87  0.00  0.00  0.76  0.00
  WS02003067WS02003066    1.00   0.10  0.02  0.00  0.88  0.00  0.00  0.00  0.00  0.00
  WS02003069WS02003072    1.00   0.00  0.00  0.00  0.99  0.01  0.00  0.00  0.72  0.00
  WS02003072WS02003073    1.00   0.00  0.00  0.00  0.00  0.00  0.00  1.00  0.00  0.00
  WS02004401WS02004402    1.00   0.02  0.00  0.00  0.98  0.00  0.00  0.00  0.00  0.00
  WS02004402WS02004403    1.00   0.02  0.00  0.00  0.97  0.00  0.00  0.00  0.00  0.00
  WS02004403WS02004404    1.00   0.00  0.03  0.00  0.97  0.00  0.00  0.00  0.00  0.00
  WS02004404WS02004405    1.00   0.00  0.00  0.00  1.00  0.00  0.00  0.00  0.00  0.00
  WS02004405WS02004406    1.00   0.00  0.00  0.00  1.00  0.00  0.00  0.00  0.00  0.00
  WS02004406WS02004407    1.00   0.00  0.05  0.00  0.95  0.00  0.00  0.00  0.00  0.00
  WS02004407WS02004409    1.00   0.05  0.00  0.00  0.94  0.01  0.00  0.00  0.94  0.00
  WS02004409WS02004410    1.00   0.05  0.00  0.00  0.95  0.00  0.00  0.00  0.03  0.00
  WS02004410WS02004411    1.00   0.05  0.00  0.00  0.95  0.00  0.00  0.00  0.01  0.00
  WS02004411WS02004412    1.00   0.05  0.00  0.00  0.95  0.00  0.00  0.00  0.00  0.00
  WS02004412WS02004413    1.00   0.05  0.00  0.00  0.94  0.00  0.00  0.00  0.01  0.00
  WS02004413WS02003067    1.00   0.06  0.04  0.00  0.00  0.00  0.90  0.00  0.00  0.00
  WS02006109WS02006110    1.00   0.00  0.01  0.00  0.98  0.00  0.01  0.00  0.00  0.00
  WS02006110WS02006113    1.00   0.01  0.01  0.00  0.98  0.00  0.00  0.00  0.00  0.00
  WS02006111WS02006112    1.00   0.02  0.00  0.00  0.98  0.00  0.00  0.00  0.98  0.00
  WS02006112WS02006115    1.00   0.02  0.00  0.00  0.97  0.00  0.00  0.00  0.00  0.00
  WS02006113WS02006111    1.00   0.02  0.00  0.00  0.00  0.98  0.00  0.00  0.15  0.00
  WS02006115WS02006116    1.00   0.02  0.00  0.00  0.97  0.00  0.00  0.01  0.00  0.00
  WS02006116WS02004401    1.00   0.02  0.00  0.00  0.98  0.00  0.00  0.00  0.00  0.00
  WS02006228WS02006109    1.00   0.00  0.00  0.00  1.00  0.00  0.00  0.00  0.00  0.00
  WS02006229WS02006228    1.00   0.00  0.00  0.00  0.99  0.00  0.00  0.01  0.00  0.00
  WS02006230WS02006229    1.00   0.00  0.00  0.00  0.99  0.00  0.00  0.01  0.00  0.00
  WS02006231WS02006230    1.00   0.00  0.00  0.00  0.29  0.00  0.70  0.00  0.00  0.00
  WS02006232WS02006231    1.00   0.00  0.00  0.00  0.99  0.00  0.01  0.00  0.00  0.00
  WS02006234WS02006232    1.00   0.00  0.00  0.00  1.00  0.00  0.00  0.00  0.16  0.00
  WS02006235WS02006234    1.00   0.00  0.00  0.00  0.78  0.00  0.22  0.00  0.00  0.00
  WS02006238WS02006235    1.00   0.00  0.00  0.00  1.00  0.00  0.00  0.00  0.00  0.00
  WS02006239WS02006238    1.00   0.00  0.00  0.00  1.00  0.00  0.00  0.00  0.28  0.00
  WS02006240WS02006239    1.00   0.00  0.00  0.00  0.64  0.00  0.00  0.35  0.02  0.00
  WS02006242WS02006240    1.00   0.00  0.00  0.00  0.99  0.00  0.00  0.00  0.00  0.00
  WS02006243WS02006242    1.00   0.00  0.00  0.00  0.99  0.00  0.00  0.00  0.47  0.00
  WS02006245WS02006243    1.00   0.00  0.00  0.00  0.73  0.00  0.00  0.27  0.01  0.00
  WS02006247WS02006245    1.00   0.00  0.00  0.00  0.99  0.00  0.00  0.01  0.00  0.00
  WS02006248WS02006247    1.00   0.00  0.00  0.00  0.99  0.00  0.00  0.01  0.25  0.00
  WS02006249WS02006248    1.00   0.00  0.00  0.00  0.52  0.00  0.48  0.00  0.00  0.00
  WS02006251WS02006249    1.00   0.00  0.00  0.00  0.99  0.00  0.00  0.00  0.50  0.00
  WS02006252WS02006251    1.00   0.00  0.26  0.00  0.11  0.00  0.62  0.00  0.00  0.00
  WS02006256WS02006235    1.00   0.00  0.00  0.00  0.99  0.01  0.00  0.00  0.00  0.00
  WSF200WS02003060        1.00   0.00  0.13  0.00  0.31  0.56  0.00  0.00  0.40  0.00
  YS02001580YS02001583    1.00   0.27  0.54  0.00  0.19  0.00  0.00  0.00  0.63  0.00
  YS02001583YS02001586    1.00   0.41  0.35  0.00  0.24  0.00  0.00  0.00  0.63  0.00
  YS02001586YS02001590    1.00   0.13  0.00  0.00  0.45  0.04  0.00  0.39  0.38  0.00
  YS02001590YS02001593    1.00   0.13  0.01  0.00  0.11  0.00  0.75  0.00  0.00  0.00
  YS02001593YS02001596    1.00   0.13  0.00  0.00  0.13  0.01  0.00  0.72  0.02  0.00
  YS02001596YS02001600    1.00   0.14  0.00  0.00  0.20  0.02  0.00  0.65  0.05  0.00
  YS02001600YS02001601    1.00   0.13  0.01  0.00  0.86  0.00  0.00  0.00  0.60  0.00
  YS02001601YS02001602    1.00   0.13  0.01  0.00  0.87  0.00  0.00  0.00  0.00  0.00
  YS02001602YS02001605    1.00   0.14  0.00  0.00  0.86  0.00  0.00  0.00  0.00  0.00
  YS02001605YS02001607    1.00   0.14  0.00  0.00  0.86  0.00  0.00  0.00  0.00  0.00
  YS02001607YS02001610    1.00   0.13  0.01  0.00  0.86  0.00  0.00  0.00  0.01  0.00
  YS02001610YS02001613    1.00   0.13  0.00  0.00  0.87  0.00  0.00  0.00  0.00  0.00
  YS02001613YS02001616    1.00   0.13  0.00  0.00  0.87  0.00  0.00  0.00  0.00  0.00
  YS02001616YS02001619    1.00   0.13  0.00  0.00  0.87  0.00  0.00  0.00  0.00  0.00
  YS02001619YS02001622    1.00   0.13  0.00  0.00  0.87  0.00  0.00  0.00  0.28  0.00
  YS02001622YS02001625    1.00   0.13  0.00  0.00  0.87  0.00  0.00  0.00  0.05  0.00
  YS02001625YS02001629    1.00   0.13  0.05  0.00  0.16  0.00  0.66  0.00  0.00  0.00
  YS02001629YS02163301    1.00   0.15  0.01  0.00  0.83  0.00  0.00  0.00  0.00  0.00
  YS02001633YS02163601    1.00   0.00  0.01  0.00  0.99  0.00  0.00  0.00  0.15  0.00
  YS02001641YS02001644    1.00   0.00  0.01  0.00  0.99  0.00  0.00  0.00  0.00  0.00
  YS02001644YS02001647    1.00   0.00  0.17  0.00  0.83  0.00  0.00  0.00  0.00  0.00
  YS02001647YS02001649    1.00   0.00  0.17  0.00  0.52  0.31  0.00  0.00  0.55  0.00
  YS02001649YS02001757    1.00   0.00  0.00  0.00  0.81  0.19  0.00  0.00  0.41  0.00
  YS02001652YS02001649    1.00   0.00  0.00  0.00  0.96  0.04  0.00  0.00  0.74  0.00
  YS02001655YS02001652    1.00   0.00  0.00  0.00  0.18  0.01  0.00  0.81  0.05  0.00
  YS02001658YS02001655    1.00   0.00  0.14  0.00  0.65  0.21  0.00  0.00  0.69  0.00
  YS02001661YS02001658    1.00   0.14  0.00  0.00  0.49  0.37  0.00  0.00  0.71  0.00
  YS02001664YS02001661    1.00   0.13  0.00  0.00  0.78  0.10  0.00  0.00  0.86  0.00
  YS02001745YS02001748    1.00   0.00  0.00  0.00  0.09  0.01  0.00  0.90  0.04  0.00
  YS02001748YS02001751    1.00   0.00  0.00  0.00  0.82  0.18  0.00  0.00  0.74  0.00
  YS02001751YS02001754    1.00   0.00  0.00  0.00  0.15  0.01  0.00  0.84  0.03  0.00
  YS02001754YS02001757    1.00   0.00  0.00  0.00  1.00  0.00  0.00  0.00  0.83  0.00
  YS02001757CaochengTiaoxuchi    1.00   0.00  0.00  0.00  1.00  0.00  0.00  0.00  0.68  0.00
  YS02001759YS02001757    1.00   0.00  0.00  0.00  1.00  0.00  0.00  0.00  0.53  0.00
  YS02001762YS02001759    1.00   0.00  0.00  0.00  1.00  0.00  0.00  0.00  0.06  0.00
  YS02001765YS02001762    1.00   0.00  0.00  0.00  1.00  0.00  0.00  0.00  0.68  0.00
  YS02001767YS02001765    1.00   0.00  0.00  0.00  1.00  0.00  0.00  0.00  0.01  0.00
  YS02001770YS02001767    1.00   0.00  0.00  0.00  1.00  0.00  0.00  0.00  0.00  0.00
  YS02001774YS02001770    1.00   0.00  0.13  0.00  0.70  0.00  0.16  0.00  0.03  0.00
  YS02001779YS02001774    1.00   0.00  0.00  0.00  1.00  0.00  0.00  0.00  0.76  0.00
  YS02001783YS02001784    1.00   0.00  0.18  0.00  0.82  0.00  0.00  0.00  0.55  0.00
  YS02001784YS02001785    1.00   0.00  0.00  0.00  1.00  0.00  0.00  0.00  0.17  0.00
  YS02001786YS02001788    1.00   0.00  0.00  0.00  0.79  0.21  0.00  0.00  0.00  0.00
  YS02001788YS02001790    1.00   0.00  0.00  0.00  0.21  0.79  0.00  0.00  0.80  0.00
  YS02001790YS02001791    1.00   0.00  0.00  0.00  0.01  0.99  0.00  0.00  0.16  0.00
  YS02001791YS02001793    1.00   0.00  0.00  0.00  0.00  1.00  0.00  0.00  0.01  0.00
  YS02001793JiankangQianchi    1.00   0.00  0.00  0.00  0.98  0.02  0.00  0.00  0.96  0.00
  YS02001882YS02001884    1.00   0.15  0.01  0.00  0.84  0.00  0.00  0.00  0.00  0.00
  YS02001884YS02001887    1.00   0.06  0.05  0.00  0.89  0.00  0.00  0.00  0.00  0.00
  YS02001887YS02001890    1.00   0.00  0.00  0.00  0.97  0.00  0.03  0.00  0.00  0.00
  YS02001890YS02001895    1.00   0.00  0.16  0.00  0.83  0.00  0.00  0.00  0.00  0.00
  YS02001895YS02001898    1.00   0.17  0.00  0.00  0.81  0.00  0.02  0.00  0.00  0.00
  YS02001898YS02001901    1.00   0.17  0.00  0.00  0.83  0.00  0.00  0.00  0.01  0.00
  YS02001901YS02001904    1.00   0.17  0.00  0.00  0.83  0.00  0.00  0.00  0.00  0.00
  YS02001904YS02001907    1.00   0.00  0.16  0.00  0.83  0.00  0.00  0.00  0.00  0.00
  YS02001907YS02006553    1.00   0.00  0.02  0.00  0.98  0.00  0.00  0.00  0.00  0.00
  YS02001910YS02001907    1.00   0.00  0.00  0.00  0.97  0.00  0.00  0.03  0.12  0.00
  YS02001915YS02001910    1.00   0.00  0.00  0.00  0.97  0.03  0.00  0.00  0.16  0.00
  YS02001918YS02001915    1.00   0.00  0.01  0.00  0.98  0.02  0.00  0.00  0.75  0.00
  YS02001920YS02001918    1.00   0.00  0.01  0.00  0.99  0.00  0.00  0.00  0.00  0.00
  YS02001923YS02001920    1.00   0.00  0.00  0.00  1.00  0.00  0.00  0.00  0.92  0.00
  YS02001926YS02001923    1.00   0.00  0.07  0.00  0.06  0.00  0.87  0.00  0.00  0.00
  YS02001929YS02001926    1.00   0.00  0.13  0.00  0.87  0.00  0.00  0.00  0.82  0.00
  YS02006553YS02006556    1.00   0.01  0.00  0.00  0.99  0.00  0.00  0.00  0.03  0.00
  YS02006556YS02006558    1.00   0.00  0.00  0.00  1.00  0.00  0.00  0.00  0.00  0.00
  YS02006558YS02006561    1.00   0.18  0.00  0.00  0.05  0.76  0.00  0.00  0.19  0.00
  YS02006561YS02001783    1.00   0.18  0.00  0.00  0.09  0.73  0.00  0.00  0.68  0.00
  YS02163301YS02001633    1.00   0.00  0.15  0.00  0.85  0.00  0.00  0.00  0.00  0.00
  YS02163601YS02164001    1.00   0.00  0.08  0.00  0.92  0.00  0.00  0.00  0.00  0.00
  YS02164001YS02001641    1.00   0.01  0.07  0.00  0.92  0.00  0.00  0.00  0.05  0.00
  
  
  *************************
  Conduit Surcharge Summary
  *************************
  
  ----------------------------------------------------------------------------
                                                           Hours        Hours 
                         --------- Hours Full --------   Above Full   Capacity
  Conduit                Both Ends  Upstream  Dnstream   Normal Flow   Limited
  ----------------------------------------------------------------------------
  WS02003072WS02003073        0.01      0.01      0.01      1.12         0.01
  WS02004404WS02004405        0.01      0.01      0.01      3.97         0.01
  WS02004405WS02004406        0.01      0.01      0.01      0.66         0.01
  WS02006109WS02006110        0.75      0.75      2.14      0.84         0.01
  WS02006110WS02006113        0.01      0.01      2.09      0.01         0.01
  WS02006111WS02006112        0.01      0.01      2.66      0.01         0.01
  WS02006112WS02006115        0.01      0.01      0.71      0.01         0.01
  WS02006228WS02006109        2.02      2.14      2.02      2.98         2.02
  WS02006229WS02006228        2.00      2.03      2.00      2.50         2.00
  WS02006230WS02006229        2.26      2.44      2.26      4.46         2.26
  WS02006231WS02006230        0.75      0.75      0.89      4.20         0.01
  WS02006232WS02006231        0.85      0.85      2.15      0.92         0.01
  WS02006234WS02006232        1.93      1.94      2.15      0.90         0.90
  WS02006235WS02006234        1.12      1.13      2.01      4.11         0.01
  WS02006238WS02006235        2.04      2.04      2.16      0.01         0.01
  WS02006239WS02006238        2.08      2.12      2.08      2.27         1.90
  WS02006240WS02006239        2.00      2.04      2.01      2.27         1.79
  WS02006242WS02006240        2.02      2.02      2.21      2.51         0.01
  WS02006243WS02006242        2.03      2.03      2.13      0.01         0.03
  WS02006245WS02006243        2.01      2.02      2.02      1.48         1.28
  WS02006247WS02006245        2.01      2.05      2.01      3.80         2.00
  WS02006248WS02006247        2.00      2.00      2.03      0.01         0.04
  WS02006249WS02006248        1.99      1.99      2.01      3.78         0.01
  WS02006251WS02006249        2.00      2.01      2.01      2.34         1.94
  WS02006252WS02006251        2.40      2.40      2.41      2.41         0.01
  WS02006256WS02006235        4.12      4.15      5.83      1.32         0.01
  YS02001580YS02001583        0.59      0.59      0.64      0.01         0.01
  YS02001583YS02001586        0.59      0.59      0.71      0.01         0.01
  YS02001586YS02001590        0.72      0.72      0.79      0.01         0.01
  YS02001590YS02001593        0.79      0.79      0.82      0.81         0.01
  YS02001593YS02001596        0.81      0.81      0.92      0.01         0.01
  YS02001596YS02001600        0.97      0.97      1.06      0.01         0.01
  YS02001600YS02001601        1.12      1.12      1.40      0.01         0.01
  YS02001601YS02001602        1.29      1.29      1.45      1.07         0.01
  YS02001602YS02001605        1.24      1.24      1.29      2.34         0.01
  YS02001605YS02001607        1.19      1.24      1.19      1.36         1.19
  YS02001607YS02001610        0.78      0.78      0.80      0.01         0.01
  YS02001610YS02001613        0.77      0.77      0.80      0.01         0.01
  YS02001613YS02001616        0.73      0.73      0.77      0.01         0.01
  YS02001616YS02001619        0.72      0.72      0.73      0.01         0.01
  YS02001619YS02001622        0.71      0.72      0.71      0.80         0.69
  YS02001622YS02001625        0.71      0.71      0.90      0.01         0.01
  YS02001625YS02001629        0.66      0.66      0.90      0.01         0.01
  YS02001629YS02163301        0.89      0.89      0.90      0.13         0.16
  YS02001633YS02163601        0.93      0.93      0.96      0.32         0.32
  YS02001641YS02001644        0.83      0.86      0.83      1.49         0.81
  YS02001644YS02001647        0.61      0.61      0.83      0.01         0.01
  YS02001647YS02001649        0.61      0.61      0.73      0.01         0.01
  YS02001649YS02001757        0.73      0.73      0.79      0.11         0.06
  YS02001652YS02001649        0.57      0.57      0.73      0.01         0.01
  YS02001655YS02001652        0.40      0.40      0.54      0.01         0.01
  YS02001658YS02001655        0.24      0.24      0.40      0.01         0.01
  YS02001661YS02001658        0.03      0.03      0.24      0.01         0.01
  YS02001664YS02001661        0.01      0.01      0.07      0.01         0.01
  YS02001745YS02001748        0.01      0.01      0.18      0.01         0.01
  YS02001748YS02001751        0.21      0.21      0.31      0.01         0.01
  YS02001751YS02001754        0.31      0.31      0.47      0.01         0.01
  YS02001754YS02001757        0.50      0.50      0.79      0.01         0.01
  YS02001757CaochengTiaoxuchi        0.79      0.79      1.63      0.33         0.32
  YS02001759YS02001757        0.70      0.70      0.79      0.01         0.01
  YS02001762YS02001759        0.67      0.67      0.70      0.01         0.01
  YS02001765YS02001762        0.63      0.63      0.67      0.01         0.01
  YS02001767YS02001765        0.60      0.60      0.63      0.01         0.02
  YS02001770YS02001767        0.60      0.60      0.60      0.51         0.41
  YS02001774YS02001770        0.56      0.56      0.65      0.01         0.01
  YS02001779YS02001774        0.46      0.46      0.65      0.01         0.01
  YS02001783YS02001784        0.50      0.52      0.50      0.69         0.50
  YS02001784YS02001785        0.39      0.50      0.39      0.94         0.39
  YS02001786YS02001788        0.01      0.39      0.01      0.81         0.01
  YS02001790YS02001791        0.01      0.01      0.01      0.48         0.01
  YS02001793JiankangQianchi        0.01      0.01      7.47      0.01         0.01
  YS02001882YS02001884        0.47      0.47      0.48      0.01         0.01
  YS02001884YS02001887        0.50      0.50      0.51      0.01         0.01
  YS02001887YS02001890        0.53      0.53      0.54      0.10         0.01
  YS02001890YS02001895        0.46      0.46      0.56      0.01         0.01
  YS02001895YS02001898        0.45      0.45      0.46      0.01         0.01
  YS02001898YS02001901        0.46      0.46      0.50      0.01         0.01
  YS02001901YS02001904        0.49      0.49      0.50      0.01         0.01
  YS02001904YS02001907        0.49      0.49      0.80      0.01         0.01
  YS02001907YS02006553        0.95      0.95      1.02      0.01         0.01
  YS02001910YS02001907        0.56      0.56      0.77      0.01         0.01
  YS02001915YS02001910        0.46      0.46      0.56      0.01         0.01
  YS02001918YS02001915        0.38      0.38      0.46      0.01         0.01
  YS02001920YS02001918        0.38      0.38      0.39      0.01         0.01
  YS02001923YS02001920        0.33      0.33      0.39      0.01         0.01
  YS02001926YS02001923        0.07      0.07      0.12      0.01         0.01
  YS02001929YS02001926        0.01      0.01      0.12      0.01         0.01
  YS02006553YS02006556        0.66      0.66      0.79      0.01         0.01
  YS02006556YS02006558        0.73      0.73      0.81      0.01         0.01
  YS02006558YS02006561        0.41      0.64      0.41      0.89         0.41
  YS02006561YS02001783        0.34      0.34      0.52      0.01         0.01
  YS02163301YS02001633        0.90      0.90      0.94      0.01         0.01
  YS02163601YS02164001        0.87      0.87      0.96      0.10         0.01
  YS02164001YS02001641        0.86      0.87      0.86      0.68         0.59
  
  
  ***************
  Pumping Summary
  ***************
  
  ---------------------------------------------------------------------------------------------------------
                                                  Min       Avg       Max     Total     Power    % Time Off
                        Percent   Number of      Flow      Flow      Flow    Volume     Usage    Pump Curve
  Pump                 Utilized   Start-Ups       LPS       LPS       LPS  10^6 ltr     Kw-hr    Low   High
  ---------------------------------------------------------------------------------------------------------
  CC-R1                   18.10           5      0.00    683.00    683.00     3.561     66.35    0.0   22.6
  CC-R2                   15.54           3      0.00    683.00    683.00     3.056     57.52    0.0   12.8
  CC-S1                   44.57           9      0.00    200.00    200.00     2.567     15.37    0.0    0.0
  CC-S2                   33.24           9      0.00    200.00    200.00     1.914     11.54    0.0    0.0
  JK-R1                    6.49          10      0.00   1000.00   1000.00     1.870     21.18    0.0    0.0
  JK-R2                    2.55           5      0.00   1000.00   1000.00     0.736      7.49    0.0    0.0
  JK-S                    16.34          14      0.00    300.00    300.00     1.412     19.98    0.0    0.0
  

  Analysis begun on:  Wed Jan 15 10:35:19 2025
  Analysis ended on:  Wed Jan 15 10:35:20 2025
  Total elapsed time: 00:00:01