
  EPA STORM WATER MANAGEMENT MODEL - VERSION 5.2 (Build 5.2.4)
  PYSWMM TOOLKIT API - VERSION v1.0 (2023-11-27)
  ------------------------------------------------------------

  WARNING 04: minimum elevation drop used for Conduit WS02004404WS02004405
  WARNING 03: negative offset ignored for Link YS02001904YS02001907
  
  ****************
  Analysis Options
  ****************
  Flow Units ............... LPS
  Process Models:
    Rainfall/Runoff ........ YES
    RDII ................... NO
    Snowmelt ............... NO
    Groundwater ............ NO
    Flow Routing ........... YES
    Ponding Allowed ........ NO
    Water Quality .......... NO
  Infiltration Method ...... HORTON
  Flow Routing Method ...... DYNWAVE
  Surcharge Method ......... EXTRAN
  Starting Date ............ 08/28/2015 08:00:00
  Ending Date .............. 08/28/2015 16:00:00
  Antecedent Dry Days ...... 8.0
  Report Time Step ......... 00:01:00
  Wet Time Step ............ 00:01:00
  Dry Time Step ............ 00:01:00
  Routing Time Step ........ 30.00 sec
  Variable Time Step ....... YES
  Maximum Trials ........... 8
  Number of Threads ........ 4
  Head Tolerance ........... 0.001500 m
  
  
  **************************        Volume         Depth
  Runoff Quantity Continuity     hectare-m            mm
  **************************     ---------       -------
  Total Precipitation ......         3.151        94.999
  Evaporation Loss .........         0.000         0.000
  Infiltration Loss ........         0.104         3.134
  Surface Runoff ...........         3.015        90.887
  Final Storage ............         0.033         0.996
  Continuity Error (%) .....        -0.019
  
  
  **************************        Volume        Volume
  Flow Routing Continuity        hectare-m      10^6 ltr
  **************************     ---------     ---------
  Dry Weather Inflow .......         0.025         0.251
  Wet Weather Inflow .......         3.015        30.147
  Groundwater Inflow .......         0.000         0.000
  RDII Inflow ..............         0.000         0.000
  External Inflow ..........         0.083         0.834
  External Outflow .........         1.931        19.312
  Flooding Loss ............         1.247        12.467
  Evaporation Loss .........         0.000         0.000
  Exfiltration Loss ........         0.000         0.000
  Initial Stored Volume ....         0.243         2.431
  Final Stored Volume ......         0.194         1.942
  Continuity Error (%) .....        -0.176
  
  
  *************************
  Highest Continuity Errors
  *************************
  Node YS02001884 (4.57%)
  Node YS02001583 (-4.54%)
  
  
  ***************************
  Time-Step Critical Elements
  ***************************
  Link WS02006252WS02006251 (58.44%)
  Link WS02006238WS02006235 (9.79%)
  Link YS02001791YS02001793 (7.98%)
  Link WS02004404WS02004405 (6.84%)
  Link WS02006235WS02006234 (4.56%)
  
  
  ********************************
  Highest Flow Instability Indexes
  ********************************
  Link WS02006113WS02006111 (52)
  Link WS02006111WS02006112 (26)
  Link WS02006238WS02006235 (14)
  Link WS02006256WS02006235 (13)
  Link WS02006252WS02006251 (12)
  
  
  *********************************
  Most Frequent Nonconverging Nodes
  *********************************
  Node CC-1 (9.47%)
  Node CC-2 (9.47%)
  Node JK-1 (9.47%)
  Node JK-2 (9.47%)
  Node WSC (9.47%)
  
  
  *************************
  Routing Time Step Summary
  *************************
  Minimum Time Step           :     0.01 sec
  Average Time Step           :     1.60 sec
  Maximum Time Step           :     7.04 sec
  % of Time in Steady State   :     0.00
  Average Iterations per Step :     2.90
  % of Steps Not Converging   :     9.47
  Time Step Frequencies       :
     30.000 - 13.228 sec      :     0.00 %
     13.228 -  5.833 sec      :     4.89 %
      5.833 -  2.572 sec      :    13.67 %
      2.572 -  1.134 sec      :    18.82 %
      1.134 -  0.500 sec      :    62.62 %
  
  
  ***************************
  Subcatchment Runoff Summary
  ***************************
  
  ------------------------------------------------------------------------------------------------------------------------------
                            Total      Total      Total      Total     Imperv       Perv      Total       Total     Peak  Runoff
                           Precip      Runon       Evap      Infil     Runoff     Runoff     Runoff      Runoff   Runoff   Coeff
  Subcatchment                 mm         mm         mm         mm         mm         mm         mm    10^6 ltr      LPS
  ------------------------------------------------------------------------------------------------------------------------------
  sub60                     95.00       0.00       0.00       1.89      82.40       9.52      91.92        1.21   714.12   0.968
  sub61                     95.00       0.00       0.00       2.73      77.72      13.42      91.14        1.67   991.92   0.959
  sub62                     95.00       0.00       0.00       1.26      86.12       6.35      92.46        2.53  1399.70   0.973
  sub63                     95.00       0.00       0.00       5.03      66.48      22.52      89.00        2.02  1122.58   0.937
  sub64                     95.00       0.00       0.00       2.55      79.55      11.71      91.25        2.19  1157.99   0.961
  sub65                     95.00       0.00       0.00       2.20      81.40      10.15      91.55        2.52  1297.79   0.964
  sub66                     95.00       0.00       0.00       6.20      66.37      21.35      87.72        4.09  1741.03   0.923
  sub67                     95.00       0.00       0.00       1.21      86.16       6.40      92.55        1.72  1060.18   0.974
  sub68                     95.00       0.00       0.00       2.27      80.52      11.04      91.55        2.52  1434.96   0.964
  sub69                     95.00       0.00       0.00       2.04      80.64      12.22      92.86        3.44  1726.27   0.977
  sub70                     95.00       0.00       0.00       6.74      62.53      25.56      88.09        2.54   983.33   0.927
  sub71                     95.00       0.00       0.00       1.29      86.07       6.31      92.39        2.42  1252.56   0.972
  sub72                     95.00       0.00       0.00       1.15      86.95       5.50      92.45        1.27   612.63   0.973
  
  
  ******************
  Node Depth Summary
  ******************
  
  ---------------------------------------------------------------------------------
                                 Average  Maximum  Maximum  Time of Max    Reported
                                   Depth    Depth      HGL   Occurrence   Max Depth
  Node                 Type       Meters   Meters   Meters  days hr:min      Meters
  ---------------------------------------------------------------------------------
  WS02003060           JUNCTION     0.25     0.38     5.32     0  02:14        0.38
  WS02003066           JUNCTION     0.21     0.30     5.85     0  02:13        0.30
  WS02003067           JUNCTION     0.53     0.70     6.02     0  02:13        0.70
  WS02003069           JUNCTION     0.28     0.43     5.01     0  02:15        0.43
  WS02003072           JUNCTION     0.34     0.50     4.87     0  02:15        0.50
  WS02003073           JUNCTION     0.20     0.30     4.36     0  02:18        0.30
  WS02004401           JUNCTION     0.61     0.85     6.85     0  02:11        0.85
  WS02004402           JUNCTION     0.64     0.88     6.84     0  02:11        0.88
  WS02004403           JUNCTION     0.66     0.89     6.82     0  02:11        0.89
  WS02004404           JUNCTION     0.74     0.96     6.81     0  02:11        0.96
  WS02004405           JUNCTION     0.74     0.96     6.81     0  02:11        0.96
  WS02004406           JUNCTION     0.75     0.96     6.79     0  02:12        0.96
  WS02004407           JUNCTION     0.19     0.30     6.61     0  02:12        0.30
  WS02004409           JUNCTION     0.42     0.67     6.44     0  02:12        0.67
  WS02004410           JUNCTION     0.44     0.68     6.40     0  02:12        0.68
  WS02004411           JUNCTION     0.46     0.69     6.37     0  02:12        0.69
  WS02004412           JUNCTION     0.48     0.70     6.34     0  02:13        0.70
  WS02004413           JUNCTION     0.65     0.86     6.33     0  02:13        0.86
  WS02006109           JUNCTION     0.67     1.14     7.76     0  02:21        1.09
  WS02006110           JUNCTION     0.68     1.16     7.74     0  02:21        1.05
  WS02006111           JUNCTION     0.19     0.29     6.99     0  02:33        0.29
  WS02006112           JUNCTION     0.77     1.07     6.95     0  02:21        1.06
  WS02006113           JUNCTION     0.29     0.46     7.35     0  02:56        0.46
  WS02006115           JUNCTION     0.49     0.75     6.89     0  02:10        0.75
  WS02006116           JUNCTION     0.58     0.83     6.87     0  02:10        0.83
  WS02006228           JUNCTION     0.66     1.18     7.83     0  02:54        1.10
  WS02006229           JUNCTION     0.63     1.22     7.92     0  02:54        1.09
  WS02006230           JUNCTION     0.63     1.45     8.19     0  02:54        1.16
  WS02006231           JUNCTION     0.44     1.91     9.04     0  02:21        1.91
  WS02006232           JUNCTION     0.58     1.93     8.97     0  02:21        1.93
  WS02006234           JUNCTION     0.50     1.48     8.64     0  02:21        1.48
  WS02006235           JUNCTION     0.54     1.57     8.73     0  02:40        1.57
  WS02006238           JUNCTION     0.57     1.63     8.77     0  02:40        1.63
  WS02006239           JUNCTION     0.53     1.64     8.85     0  02:40        1.64
  WS02006240           JUNCTION     0.50     1.59     8.89     0  02:40        1.59
  WS02006242           JUNCTION     0.57     1.55     8.82     0  02:40        1.55
  WS02006243           JUNCTION     0.47     1.40     8.82     0  02:40        1.38
  WS02006245           JUNCTION     0.47     1.30     8.79     0  02:40        1.25
  WS02006247           JUNCTION     0.50     1.25     8.75     0  02:40        1.20
  WS02006248           JUNCTION     0.45     1.10     8.69     0  01:55        1.10
  WS02006249           JUNCTION     0.49     1.09     8.69     0  01:46        1.09
  WS02006251           JUNCTION     0.48     1.62     9.29     0  02:54        1.14
  WS02006252           JUNCTION     0.37     1.50     9.74     0  00:00        0.70
  WS02006256           JUNCTION     0.94     2.35     9.28     0  00:00        2.35
  WSF200               JUNCTION     0.18     0.29     5.52     0  02:13        0.29
  YS02001580           JUNCTION     0.10     1.05     9.59     0  01:39        0.79
  YS02001583           JUNCTION     0.14     1.14     9.64     0  01:39        0.82
  YS02001586           JUNCTION     0.21     1.13     9.30     0  01:39        1.13
  YS02001590           JUNCTION     0.30     1.39     9.25     0  01:47        1.39
  YS02001593           JUNCTION     0.24     1.31     9.17     0  01:39        1.28
  YS02001596           JUNCTION     0.32     1.67     9.09     0  01:39        1.65
  YS02001600           JUNCTION     0.37     1.87     9.00     0  01:39        1.86
  YS02001601           JUNCTION     0.56     2.06     8.90     0  01:37        2.06
  YS02001602           JUNCTION     0.47     1.87     8.77     0  01:38        1.87
  YS02001605           JUNCTION     0.44     1.78     8.68     0  01:39        1.78
  YS02001607           JUNCTION     0.44     1.66     8.50     0  01:39        1.64
  YS02001610           JUNCTION     0.49     1.68     8.48     0  01:39        1.68
  YS02001613           JUNCTION     0.45     1.68     8.52     0  01:39        1.67
  YS02001616           JUNCTION     0.37     1.61     8.52     0  01:39        1.61
  YS02001619           JUNCTION     0.35     1.61     8.54     0  01:39        1.61
  YS02001622           JUNCTION     0.34     1.62     8.52     0  01:39        1.62
  YS02001625           JUNCTION     0.62     1.78     8.38     0  01:39        1.78
  YS02001629           JUNCTION     0.46     1.85     8.40     0  01:39        1.85
  YS02001633           JUNCTION     0.54     2.08     8.53     0  01:46        2.08
  YS02001641           JUNCTION     0.53     1.96     8.40     0  01:46        1.96
  YS02001644           JUNCTION     0.52     1.92     8.35     0  01:44        1.92
  YS02001647           JUNCTION     0.32     1.78     8.39     0  01:46        1.78
  YS02001649           JUNCTION     0.36     2.02     8.41     0  01:48        2.00
  YS02001652           JUNCTION     0.26     1.87     8.46     0  01:48        1.86
  YS02001655           JUNCTION     0.21     1.71     8.56     0  01:44        1.67
  YS02001658           JUNCTION     0.15     1.63     8.78     0  01:44        1.44
  YS02001661           JUNCTION     0.17     1.35     8.75     0  01:45        1.25
  YS02001664           JUNCTION     0.06     0.75     8.67     0  01:48        0.74
  YS02001745           JUNCTION     0.08     0.92     8.44     0  01:48        0.92
  YS02001748           JUNCTION     0.15     1.66     8.74     0  01:44        1.34
  YS02001751           JUNCTION     0.18     1.66     8.53     0  01:44        1.50
  YS02001754           JUNCTION     0.24     1.76     8.37     0  01:48        1.75
  YS02001757           JUNCTION     0.39     2.08     8.34     0  01:48        2.07
  YS02001759           JUNCTION     0.33     2.16     8.52     0  01:46        2.16
  YS02001762           JUNCTION     0.32     2.15     8.55     0  01:46        2.15
  YS02001765           JUNCTION     0.30     2.10     8.55     0  01:46        2.10
  YS02001767           JUNCTION     0.30     2.03     8.52     0  01:46        2.03
  YS02001770           JUNCTION     0.31     1.95     8.44     0  01:46        1.95
  YS02001774           JUNCTION     0.38     2.03     8.45     0  01:43        2.00
  YS02001779           JUNCTION     0.22     1.68     8.37     0  01:43        1.68
  YS02001783           JUNCTION     0.23     1.27     7.41     0  01:42        1.23
  YS02001784           JUNCTION     0.24     1.13     7.20     0  01:46        1.13
  YS02001786           JUNCTION     0.20     0.89     6.92     0  01:46        0.87
  YS02001788           JUNCTION     0.14     0.62     6.60     0  01:47        0.62
  YS02001790           JUNCTION     0.17     0.73     6.37     0  01:47        0.72
  YS02001791           JUNCTION     0.11     0.44     5.91     0  01:50        0.44
  YS02001793           JUNCTION     0.06     0.29     5.12     0  02:14        0.28
  YS02001882           JUNCTION     0.30     1.83     8.55     0  01:41        1.72
  YS02001884           JUNCTION     0.39     1.93     8.55     0  01:41        1.81
  YS02001887           JUNCTION     0.47     1.94     8.47     0  01:41        1.91
  YS02001890           JUNCTION     0.50     1.81     8.32     0  01:41        1.81
  YS02001895           JUNCTION     0.27     1.60     8.35     0  01:43        1.60
  YS02001898           JUNCTION     0.28     1.62     8.36     0  01:43        1.62
  YS02001901           JUNCTION     0.39     1.73     8.34     0  01:43        1.73
  YS02001904           JUNCTION     0.37     1.67     8.30     0  01:43        1.67
  YS02001907           JUNCTION     0.70     1.96     8.25     0  01:43        1.96
  YS02001910           JUNCTION     0.50     1.98     8.49     0  01:50        1.98
  YS02001915           JUNCTION     0.30     2.00     8.72     0  01:41        1.97
  YS02001918           JUNCTION     0.17     1.81     8.88     0  01:43        1.66
  YS02001920           JUNCTION     0.25     2.11     9.12     0  01:43        1.73
  YS02001923           JUNCTION     0.13     2.03     9.29     0  01:43        1.49
  YS02001926           JUNCTION     0.16     1.90     9.35     0  01:43        1.33
  YS02001929           JUNCTION     0.09     1.78     9.47     0  01:43        1.10
  YS02006553           JUNCTION     0.71     2.00     8.28     0  01:46        2.00
  YS02006556           JUNCTION     0.68     2.05     8.36     0  01:46        2.05
  YS02006558           JUNCTION     0.72     2.11     8.38     0  01:46        2.11
  YS02006561           JUNCTION     0.14     0.99     7.65     0  01:42        0.91
  YS02163301           JUNCTION     0.48     1.96     8.47     0  01:47        1.96
  YS02163601           JUNCTION     0.58     2.08     8.48     0  01:46        2.08
  YS02164001           JUNCTION     0.51     1.96     8.42     0  01:46        1.96
  CC-1                 OUTFALL      0.00     0.00     0.00     0  00:00        0.00
  CC-2                 OUTFALL      0.00     0.00     0.00     0  00:00        0.00
  JK-1                 OUTFALL      0.00     0.00     0.00     0  00:00        0.00
  JK-2                 OUTFALL      0.00     0.00     0.00     0  00:00        0.00
  WSC                  OUTFALL      0.20     0.30     0.97     0  02:19        0.30
  CC-storage           STORAGE      0.92     1.91     7.41     0  02:30        1.91
  JK-storage           STORAGE      3.03     4.23     5.03     0  01:55        4.19
  
  
  *******************
  Node Inflow Summary
  *******************
  
  -------------------------------------------------------------------------------------------------
                                  Maximum  Maximum                  Lateral       Total        Flow
                                  Lateral    Total  Time of Max      Inflow      Inflow     Balance
                                   Inflow   Inflow   Occurrence      Volume      Volume       Error
  Node                 Type           LPS      LPS  days hr:min    10^6 ltr    10^6 ltr     Percent
  -------------------------------------------------------------------------------------------------
  WS02003060           JUNCTION     16.53   553.59     0  02:14       0.476        6.44       0.047
  WS02003066           JUNCTION      0.00   536.81     0  02:13           0        5.96       0.028
  WS02003067           JUNCTION      0.00   536.74     0  02:13           0        5.97       0.077
  WS02003069           JUNCTION      0.32   553.70     0  02:14     0.00922        6.44       0.081
  WS02003072           JUNCTION      0.00   553.40     0  02:15           0        6.44       0.134
  WS02003073           JUNCTION      1.82   555.11     0  02:16      0.0524        6.48       0.119
  WS02004401           JUNCTION      0.00   538.25     0  02:11           0        6.08       0.176
  WS02004402           JUNCTION      0.00   537.61     0  02:13           0        6.07       0.178
  WS02004403           JUNCTION      0.00   537.97     0  02:11           0        6.06       0.173
  WS02004404           JUNCTION      0.16   537.64     0  02:11     0.00467        6.05       0.143
  WS02004405           JUNCTION      0.04   537.34     0  02:13      0.0011        6.04       0.214
  WS02004406           JUNCTION      0.00   537.60     0  02:11           0        6.03       0.355
  WS02004407           JUNCTION      0.00   537.27     0  02:12           0        6.01       0.025
  WS02004409           JUNCTION      0.00   537.15     0  02:12           0        6.01       0.059
  WS02004410           JUNCTION      0.00   537.13     0  02:12           0           6       0.088
  WS02004411           JUNCTION      0.00   536.99     0  02:12           0           6       0.108
  WS02004412           JUNCTION      0.00   536.97     0  02:13           0        5.99       0.141
  WS02004413           JUNCTION      0.00   537.01     0  02:13           0        5.98       0.244
  WS02006109           JUNCTION      1.23   562.39     0  02:54      0.0354        6.13       0.171
  WS02006110           JUNCTION      0.00   563.82     0  02:54           0        6.12       0.111
  WS02006111           JUNCTION      0.00   560.91     0  02:57           0        6.11       0.008
  WS02006112           JUNCTION      0.00   543.02     0  02:33           0        6.11       0.293
  WS02006113           JUNCTION      0.00   569.31     0  02:54           0        6.11       0.037
  WS02006115           JUNCTION      0.00   556.06     0  03:16           0        6.09       0.116
  WS02006116           JUNCTION      0.00   539.02     0  02:10           0        6.08       0.103
  WS02006228           JUNCTION      0.00   558.34     0  02:54           0         6.1       0.075
  WS02006229           JUNCTION      0.00   558.52     0  02:54           0         6.1       0.074
  WS02006230           JUNCTION     10.28   601.24     0  02:21       0.296        6.11       0.056
  WS02006231           JUNCTION      0.00   580.79     0  03:10           0        5.81       0.009
  WS02006232           JUNCTION      0.00   579.61     0  03:10           0        5.82       0.133
  WS02006234           JUNCTION      0.00   572.57     0  03:10           0        5.81      -0.138
  WS02006235           JUNCTION      0.00   562.50     0  02:31           0        5.88       0.130
  WS02006238           JUNCTION      0.00   428.07     0  03:17           0        4.85      -0.166
  WS02006239           JUNCTION      0.00   425.97     0  03:17           0        4.81      -0.129
  WS02006240           JUNCTION      0.00   421.43     0  03:17           0        4.78      -0.054
  WS02006242           JUNCTION      0.00   420.25     0  03:17           0        4.76      -0.002
  WS02006243           JUNCTION      0.00   419.50     0  03:17           0        4.74      -0.036
  WS02006245           JUNCTION      0.00   418.92     0  02:20           0        4.74       0.221
  WS02006247           JUNCTION      0.00   419.54     0  03:17           0        4.74      -0.028
  WS02006248           JUNCTION      0.00   419.66     0  03:17           0        4.74       0.049
  WS02006249           JUNCTION      0.00   459.02     0  00:00           0        5.03       0.231
  WS02006251           JUNCTION      0.08   406.61     0  01:46     0.00222        5.03       0.010
  WS02006252           JUNCTION      0.00   400.00     0  00:00           0        5.02      -0.090
  WS02006256           JUNCTION      0.00   300.00     0  00:00           0        1.56      -0.645
  WSF200               JUNCTION      0.00   536.86     0  02:13           0        5.96       0.012
  YS02001580           JUNCTION      0.00   124.97     0  01:39           0      0.0043      -0.993
  YS02001583           JUNCTION      0.00   153.04     0  01:39           0      0.0154      -4.341
  YS02001586           JUNCTION    983.33   983.33     0  01:53        2.54        2.56       0.049
  YS02001590           JUNCTION      0.00   318.23     0  01:59           0        1.72      -0.019
  YS02001593           JUNCTION      0.00   318.24     0  01:46           0        1.72      -0.000
  YS02001596           JUNCTION      0.00   318.02     0  01:59           0        1.72      -0.014
  YS02001600           JUNCTION      0.00   317.97     0  01:46           0        1.72       0.010
  YS02001601           JUNCTION   1726.27  2043.95     0  01:51        3.44        5.16       0.012
  YS02001602           JUNCTION      0.00   518.29     0  01:38           0        2.75       0.017
  YS02001605           JUNCTION      0.00   518.52     0  01:38           0        2.55       0.020
  YS02001607           JUNCTION      0.00   518.70     0  01:38           0        2.55       0.072
  YS02001610           JUNCTION      0.00   952.36     0  01:55           0        3.15       0.071
  YS02001613           JUNCTION      0.00   615.93     0  01:55           0        2.39       0.063
  YS02001616           JUNCTION      0.00   615.94     0  01:55           0        2.39       0.013
  YS02001619           JUNCTION   1741.03  1741.03     0  01:52        4.09        5.88      -0.005
  YS02001622           JUNCTION      0.00  1053.87     0  01:53           0        5.27      -0.005
  YS02001625           JUNCTION      0.00  1503.42     0  01:55           0         5.7       0.174
  YS02001629           JUNCTION      0.00   921.85     0  01:39           0        3.97       0.002
  YS02001633           JUNCTION   1297.99  1365.75     0  01:42        2.53        5.94       0.053
  YS02001641           JUNCTION      0.00  1364.51     0  01:42           0         5.4       0.048
  YS02001644           JUNCTION   1158.03  1861.68     0  01:51        2.19        7.59       0.041
  YS02001647           JUNCTION      0.00  1768.06     0  01:42           0        6.37       0.002
  YS02001649           JUNCTION      0.00  1980.16     0  01:42           0        8.39       0.002
  YS02001652           JUNCTION      0.00  1126.13     0  01:50           0        2.03      -0.067
  YS02001655           JUNCTION      0.15  1126.24     0  01:50     0.00443        2.03      -0.011
  YS02001658           JUNCTION      0.00  1126.00     0  01:50           0        2.02      -0.048
  YS02001661           JUNCTION      0.00  1125.75     0  01:50           0        2.02       0.001
  YS02001664           JUNCTION   1122.58  1122.58     0  01:50        2.02        2.02      -0.006
  YS02001745           JUNCTION    714.13   714.13     0  01:50        1.21        1.21       0.139
  YS02001748           JUNCTION      0.04   714.70     0  01:50      0.0013        1.21      -0.198
  YS02001751           JUNCTION      0.01   715.48     0  01:50    0.000317        1.22       0.021
  YS02001754           JUNCTION      0.26   716.07     0  01:50     0.00749        1.23      -0.129
  YS02001757           JUNCTION      0.00  3274.60     0  01:48           0        13.3       0.018
  YS02001759           JUNCTION    991.96  1386.82     0  01:50        1.67        3.65      -0.010
  YS02001762           JUNCTION      0.00   722.29     0  01:45           0        1.98      -0.008
  YS02001765           JUNCTION      0.00   722.70     0  01:45           0        1.98      -0.007
  YS02001767           JUNCTION      0.54   723.92     0  01:45      0.0154        1.98       0.005
  YS02001770           JUNCTION   1399.85  1399.85     0  01:51        2.54        2.58      -0.013
  YS02001774           JUNCTION      0.00   851.28     0  01:52           0       0.611       0.119
  YS02001779           JUNCTION      0.01   851.03     0  01:52    0.000144       0.565      -0.169
  YS02001783           JUNCTION      0.00  1169.46     0  01:48           0        5.27       0.000
  YS02001784           JUNCTION      1.06  1170.58     0  01:48      0.0305         5.3       0.008
  YS02001786           JUNCTION      0.06  1171.06     0  01:48     0.00162         5.3       0.013
  YS02001788           JUNCTION      0.07  1171.57     0  01:48     0.00204        5.31       0.006
  YS02001790           JUNCTION      0.15  1180.82     0  01:47     0.00446        5.31       0.041
  YS02001791           JUNCTION      0.00  1298.84     0  01:47           0        5.31      -0.045
  YS02001793           JUNCTION      0.00  1254.31     0  01:46           0        5.31       0.004
  YS02001882           JUNCTION      0.00    49.89     0  01:40           0      0.0135       2.994
  YS02001884           JUNCTION      0.00    81.69     0  01:40           0        0.05       4.794
  YS02001887           JUNCTION   1060.63  1060.63     0  01:50        1.73        1.77       0.231
  YS02001890           JUNCTION      0.00  1061.72     0  01:50           0        1.73       0.275
  YS02001895           JUNCTION      0.00   517.82     0  01:59           0        1.47       0.107
  YS02001898           JUNCTION      0.00   518.12     0  01:59           0        1.47      -0.014
  YS02001901           JUNCTION      0.00   517.77     0  01:59           0        1.47       0.212
  YS02001904           JUNCTION      0.00   517.97     0  01:59           0        1.47       0.153
  YS02001907           JUNCTION      0.00  2650.51     0  01:51           0        5.32       0.331
  YS02001910           JUNCTION      0.00  1868.97     0  01:51           0        3.77       0.179
  YS02001915           JUNCTION   1252.58  1868.26     0  01:51        2.42        3.81       0.031
  YS02001918           JUNCTION      0.00   617.34     0  01:51           0        1.42       0.003
  YS02001920           JUNCTION      2.87   617.24     0  01:51      0.0827         1.4       0.064
  YS02001923           JUNCTION      0.04   613.84     0  01:51     0.00109         1.3      -0.033
  YS02001926           JUNCTION      0.05   613.46     0  01:52      0.0015        1.28      -0.042
  YS02001929           JUNCTION    612.63   612.63     0  01:52        1.27        1.27      -0.059
  YS02006553           JUNCTION      0.00   792.85     0  02:16           0        2.93       0.391
  YS02006556           JUNCTION      0.00   792.64     0  02:17           0        2.94       0.255
  YS02006558           JUNCTION   1435.84  1435.84     0  01:50        2.54        5.38       0.057
  YS02006561           JUNCTION      0.00  1169.46     0  01:48           0        5.27       0.001
  YS02163301           JUNCTION      0.00   918.39     0  01:42           0        3.96       0.031
  YS02163601           JUNCTION      0.11  1365.52     0  01:42     0.00317        5.39       0.086
  YS02164001           JUNCTION      0.00  1365.37     0  01:42           0        5.39       0.035
  CC-1                 OUTFALL       0.00   683.00     0  00:00           0        4.62       0.000
  CC-2                 OUTFALL       0.00   683.00     0  00:00           0        4.47       0.000
  JK-1                 OUTFALL       0.00  1000.00     0  00:00           0        2.43       0.000
  JK-2                 OUTFALL       0.00  1000.00     0  00:00           0        1.31       0.000
  WSC                  OUTFALL       0.00   555.06     0  02:19           0        6.47       0.000
  CC-storage           STORAGE       0.00  3274.46     0  01:48           0        15.5      -0.193
  JK-storage           STORAGE       0.00  1289.99     0  01:50           0        5.46       0.016
  
  
  **********************
  Node Surcharge Summary
  **********************
  
  Surcharging occurs when water rises above the top of the highest conduit.
  ---------------------------------------------------------------------
                                               Max. Height   Min. Depth
                                   Hours       Above Crown    Below Rim
  Node                 Type      Surcharged         Meters       Meters
  ---------------------------------------------------------------------
  WS02006109           JUNCTION        2.10          0.321        1.499
  WS02006110           JUNCTION        0.96          0.248        1.602
  WS02006112           JUNCTION        0.99          0.067        1.613
  WS02006228           JUNCTION        2.10          0.353        1.847
  WS02006229           JUNCTION        2.11          0.421        2.029
  WS02006230           JUNCTION        0.98          0.370        1.200
  WS02006231           JUNCTION        1.09          1.203        0.327
  WS02006232           JUNCTION        2.14          1.229        0.251
  WS02006234           JUNCTION        1.45          0.762        0.478
  WS02006235           JUNCTION        2.07          0.860        0.430
  WS02006238           JUNCTION        2.11          0.906        0.524
  WS02006239           JUNCTION        2.09          0.898        0.392
  WS02006240           JUNCTION        2.10          0.882        0.508
  WS02006242           JUNCTION        2.12          0.820        0.000
  WS02006243           JUNCTION        2.09          0.687        0.083
  WS02006245           JUNCTION        2.08          0.595        0.255
  WS02006247           JUNCTION        2.09          0.541        0.219
  WS02006248           JUNCTION        2.07          0.380        0.000
  WS02006249           JUNCTION        2.07          0.390        0.000
  WS02006251           JUNCTION        1.17          0.590        0.590
  WS02006252           JUNCTION        2.49          1.100        0.000
  WS02006256           JUNCTION        6.51          2.050        0.000
  YS02001580           JUNCTION        0.96          0.450        0.000
  YS02001583           JUNCTION        0.97          0.500        0.000
  YS02001586           JUNCTION        1.18          0.510        0.000
  YS02001590           JUNCTION        1.28          0.735        0.015
  YS02001593           JUNCTION        1.28          0.687        0.153
  YS02001596           JUNCTION        1.43          0.941        0.129
  YS02001600           JUNCTION        1.56          1.190        0.000
  YS02001601           JUNCTION        1.80          1.440        0.000
  YS02001602           JUNCTION        1.73          1.270        0.000
  YS02001605           JUNCTION        1.69          1.180        0.000
  YS02001607           JUNCTION        1.31          0.656        0.024
  YS02001610           JUNCTION        1.35          0.680        0.000
  YS02001613           JUNCTION        1.31          0.680        0.020
  YS02001616           JUNCTION        1.26          0.610        0.000
  YS02001619           JUNCTION        1.24          0.610        0.000
  YS02001622           JUNCTION        1.24          0.620        0.000
  YS02001625           JUNCTION        1.44          0.780        0.000
  YS02001629           JUNCTION        1.17          0.470        0.000
  YS02001633           JUNCTION        1.48          1.060        0.000
  YS02001641           JUNCTION        1.44          0.965        0.135
  YS02001644           JUNCTION        1.42          0.920        0.000
  YS02001647           JUNCTION        1.19          0.778        0.122
  YS02001649           JUNCTION        1.35          1.015        0.035
  YS02001652           JUNCTION        1.12          0.837        0.293
  YS02001655           JUNCTION        0.89          0.709        0.491
  YS02001658           JUNCTION        0.47          0.635        0.665
  YS02001661           JUNCTION        0.14          0.278        1.112
  YS02001748           JUNCTION        0.36          0.581        0.609
  YS02001751           JUNCTION        0.71          0.655        0.545
  YS02001754           JUNCTION        1.03          0.708        0.442
  YS02001757           JUNCTION        1.41          1.077        0.133
  YS02001759           JUNCTION        1.34          1.160        0.050
  YS02001762           JUNCTION        1.31          1.146        0.004
  YS02001765           JUNCTION        1.26          1.100        0.000
  YS02001767           JUNCTION        1.21          1.030        0.000
  YS02001770           JUNCTION        1.17          0.920        0.000
  YS02001774           JUNCTION        1.29          1.026        0.024
  YS02001779           JUNCTION        1.01          0.680        0.000
  YS02001783           JUNCTION        0.80          0.472        1.128
  YS02001784           JUNCTION        0.77          0.334        1.156
  YS02001786           JUNCTION        0.63          0.090        1.340
  YS02001882           JUNCTION        0.73          0.830        0.000
  YS02001884           JUNCTION        0.74          0.870        0.000
  YS02001887           JUNCTION        0.79          0.886        0.064
  YS02001890           JUNCTION        0.81          0.760        0.000
  YS02001895           JUNCTION        0.72          0.601        0.149
  YS02001898           JUNCTION        0.71          0.593        0.147
  YS02001901           JUNCTION        0.77          0.728        0.142
  YS02001904           JUNCTION        0.76          0.670        0.180
  YS02001907           JUNCTION        1.09          0.950        0.000
  YS02001910           JUNCTION        0.84          0.982        0.118
  YS02001915           JUNCTION        0.73          1.000        0.000
  YS02001918           JUNCTION        0.62          0.810        0.000
  YS02001920           JUNCTION        0.64          1.115        0.025
  YS02001923           JUNCTION        0.23          0.820        0.000
  YS02001926           JUNCTION        0.26          0.900        0.000
  YS02001929           JUNCTION        0.10          0.780        0.000
  YS02006553           JUNCTION        1.12          0.996        0.194
  YS02006556           JUNCTION        0.96          1.010        0.340
  YS02006558           JUNCTION        0.95          1.013        0.387
  YS02006561           JUNCTION        0.58          0.194        0.956
  YS02163301           JUNCTION        1.46          0.956        0.074
  YS02163601           JUNCTION        1.50          1.080        0.000
  YS02164001           JUNCTION        1.44          0.957        0.143
  
  
  *********************
  Node Flooding Summary
  *********************
  
  Flooding refers to all water that overflows a node, whether it ponds or not.
  --------------------------------------------------------------------------
                                                             Total   Maximum
                                 Maximum   Time of Max       Flood    Ponded
                        Hours       Rate    Occurrence      Volume     Depth
  Node                 Flooded       LPS   days hr:min    10^6 ltr    Meters
  --------------------------------------------------------------------------
  WS02006242              0.01      4.75      0  02:40       0.000     0.000
  WS02006248              0.01     29.59      0  05:20       0.000     0.000
  WS02006249              1.13     98.18      0  01:46       0.276     0.000
  WS02006252              0.01    245.63      0  00:00       0.000     0.000
  WS02006256              1.44    293.19      0  00:00       0.497     0.000
  YS02001580              0.01    114.46      0  01:39       0.000     0.000
  YS02001583              0.01     14.66      0  01:39       0.000     0.000
  YS02001586              0.77    665.60      0  01:53       0.820     0.000
  YS02001601              1.08   1645.90      0  01:51       2.408     0.000
  YS02001602              0.98     62.15      0  01:59       0.200     0.000
  YS02001605              0.01      3.97      0  01:39       0.000     0.000
  YS02001610              0.86    952.21      0  01:55       1.351     0.000
  YS02001616              0.03     47.46      0  01:39       0.000     0.000
  YS02001619              0.11     80.79      0  01:52       0.018     0.000
  YS02001622              0.01    109.02      0  01:39       0.000     0.000
  YS02001625              0.84   1503.42      0  01:55       2.271     0.000
  YS02001629              0.23    239.74      0  01:50       0.119     0.000
  YS02001644              0.37   1861.34      0  01:51       1.214     0.000
  YS02001767              0.01      0.76      0  01:46       0.000     0.000
  YS02001770              0.08    170.98      0  01:50       0.030     0.000
  YS02001779              0.32    850.68      0  01:52       0.546     0.000
  YS02001882              0.01     11.80      0  01:41       0.000     0.000
  YS02001884              0.01     15.21      0  01:41       0.000     0.000
  YS02001890              0.28    545.57      0  01:50       0.255     0.000
  YS02001907              0.55   2650.32      0  01:51       2.458     0.000
  YS02001915              0.01     94.49      0  01:41       0.000     0.000
  YS02001918              0.01    114.45      0  01:43       0.001     0.000
  YS02001923              0.01     83.64      0  01:43       0.000     0.000
  YS02001926              0.01     43.75      0  01:43       0.000     0.000
  YS02001929              0.01    222.16      0  01:43       0.001     0.000
  YS02163601              0.01      0.74      0  01:46       0.000     0.000
  
  
  **********************
  Storage Volume Summary
  **********************
  
  ------------------------------------------------------------------------------------------------
                         Average    Avg   Evap  Exfil     Maximum    Max    Time of Max    Maximum
                          Volume   Pcnt   Pcnt   Pcnt      Volume   Pcnt     Occurrence    Outflow
  Storage Unit           1000 m³   Full   Loss   Loss     1000 m³   Full    days hr:min        LPS
  ------------------------------------------------------------------------------------------------
  CC-storage               2.554   39.8    0.0    0.0       5.320   83.0       0  02:30    1783.53
  JK-storage               0.152   52.2    0.0    0.0       0.213   73.0       0  01:55    2300.00
  
  
  ***********************
  Outfall Loading Summary
  ***********************
  
  -----------------------------------------------------------
                         Flow       Avg       Max       Total
                         Freq      Flow      Flow      Volume
  Outfall Node           Pcnt       LPS       LPS    10^6 ltr
  -----------------------------------------------------------
  CC-1                  19.75    683.00    683.00       4.624
  CC-2                  19.08    683.00    683.00       4.467
  JK-1                   8.04   1000.00   1000.00       2.435
  JK-2                   3.75   1000.00   1000.00       1.310
  WSC                   99.97    274.77    555.06       6.475
  -----------------------------------------------------------
  System                30.12   3640.77   3921.04      19.312
  
  
  ********************
  Link Flow Summary
  ********************
  
  -----------------------------------------------------------------------------
                                 Maximum  Time of Max   Maximum    Max/    Max/
                                  |Flow|   Occurrence   |Veloc|    Full    Full
  Link                 Type          LPS  days hr:min     m/sec    Flow   Depth
  -----------------------------------------------------------------------------
  1                    CONDUIT    555.06     0  02:19      2.83    0.19    0.30
  WS02003060WS02003069 CONDUIT    553.38     0  02:14      1.64    0.22    0.34
  WS02003066WSF200     CONDUIT    536.86     0  02:13      2.85    0.09    0.22
  WS02003067WS02003066 CONDUIT    536.81     0  02:13      1.21    0.17    0.42
  WS02003069WS02003072 CONDUIT    553.40     0  02:15      1.37    0.27    0.39
  WS02003072WS02003073 CONDUIT    553.28     0  02:16      1.44    1.20    0.37
  WS02004401WS02004402 CONDUIT    537.61     0  02:13      0.98    0.65    0.86
  WS02004402WS02004403 CONDUIT    537.97     0  02:11      0.97    0.77    0.88
  WS02004403WS02004404 CONDUIT    537.48     0  02:11      0.92    0.39    0.93
  WS02004404WS02004405 CONDUIT    537.30     0  02:13      1.08    5.26    0.96
  WS02004405WS02004406 CONDUIT    537.60     0  02:11      0.99    1.06    0.96
  WS02004406WS02004407 CONDUIT    537.27     0  02:12      1.04    0.24    0.63
  WS02004407WS02004409 CONDUIT    537.15     0  02:12      1.53    0.19    0.48
  WS02004409WS02004410 CONDUIT    537.13     0  02:12      1.01    0.69    0.67
  WS02004410WS02004411 CONDUIT    536.99     0  02:12      0.95    0.73    0.69
  WS02004411WS02004412 CONDUIT    536.97     0  02:13      0.92    0.76    0.69
  WS02004412WS02004413 CONDUIT    537.01     0  02:13      0.82    0.36    0.78
  WS02004413WS02003067 CONDUIT    536.74     0  02:13      1.11    0.23    0.59
  WS02006109WS02006110 CONDUIT    563.82     0  02:54      1.12    1.08    1.00
  WS02006110WS02006113 CONDUIT    569.31     0  02:54      1.37    0.52    0.79
  WS02006111WS02006112 CONDUIT    543.02     0  02:33      1.81    0.26    0.67
  WS02006112WS02006115 CONDUIT    556.06     0  03:16      0.84    0.33    0.87
  WS02006113WS02006111 CONDUIT    560.91     0  02:57      2.47    0.67    0.46
  WS02006115WS02006116 CONDUIT    539.02     0  02:10      1.04    0.69    0.76
  WS02006116WS02004401 CONDUIT    538.25     0  02:11      0.98    0.74    0.84
  WS02006228WS02006109 CONDUIT    561.16     0  02:54      1.12    2.45    1.00
  WS02006229WS02006228 CONDUIT    558.34     0  02:54      1.14    1.85    1.00
  WS02006230WS02006229 CONDUIT    558.52     0  02:54      1.45   12.43    1.00
  WS02006231WS02006230 CONDUIT    590.96     0  02:21      1.61    8.96    1.00
  WS02006232WS02006231 CONDUIT    580.79     0  03:10      1.51    1.22    1.00
  WS02006234WS02006232 CONDUIT    579.61     0  03:10      1.51    1.17    1.00
  WS02006235WS02006234 CONDUIT    572.57     0  03:10      1.49    6.04    1.00
  WS02006238WS02006235 CONDUIT    429.64     0  03:17      1.49    0.96    1.00
  WS02006239WS02006238 CONDUIT    428.07     0  03:17      1.11    1.37    1.00
  WS02006240WS02006239 CONDUIT    425.97     0  03:17      1.24    1.34    1.00
  WS02006242WS02006240 CONDUIT    421.43     0  03:17      1.13    1.67    1.00
  WS02006243WS02006242 CONDUIT    420.25     0  03:17      1.40    0.90    1.00
  WS02006245WS02006243 CONDUIT    419.50     0  03:17      1.45    1.24    1.00
  WS02006247WS02006245 CONDUIT    418.92     0  02:20      1.43    3.32    1.00
  WS02006248WS02006247 CONDUIT    419.54     0  03:17      1.44    0.91    1.00
  WS02006249WS02006248 CONDUIT    419.66     0  03:17      1.37    2.30    1.00
  WS02006251WS02006249 CONDUIT    459.02     0  00:00      1.99    1.32    1.00
  WS02006252WS02006251 CONDUIT    406.54     0  01:46     24.61    1.49    1.00
  WS02006256WS02006235 CONDUIT    288.91     0  00:00      4.23    3.06    1.00
  WSF200WS02003060     CONDUIT    537.06     0  02:14      2.06    0.12    0.28
  YS02001580YS02001583 CONDUIT    124.97     0  01:39      0.64    0.48    1.00
  YS02001583YS02001586 CONDUIT    150.71     0  01:39      0.65    0.23    1.00
  YS02001586YS02001590 CONDUIT    318.23     0  01:59      1.25    0.56    1.00
  YS02001590YS02001593 CONDUIT    318.24     0  01:46      1.13    2.00    1.00
  YS02001593YS02001596 CONDUIT    318.02     0  01:59      1.69    0.50    1.00
  YS02001596YS02001600 CONDUIT    317.97     0  01:46      1.25    0.62    1.00
  YS02001600YS02001601 CONDUIT    317.98     0  01:46      1.12    0.55    1.00
  YS02001601YS02001602 CONDUIT    518.29     0  01:38      1.83    1.87    1.00
  YS02001602YS02001605 CONDUIT    518.52     0  01:38      1.83   10.97    1.00
  YS02001605YS02001607 CONDUIT    518.70     0  01:38      1.83    2.84    1.00
  YS02001607YS02001610 CONDUIT    522.63     0  01:38      0.67    0.50    1.00
  YS02001610YS02001613 CONDUIT    615.94     0  01:55      0.78    0.71    1.00
  YS02001613YS02001616 CONDUIT    615.93     0  01:55      0.78    0.53    1.00
  YS02001616YS02001619 CONDUIT    615.94     0  01:55      0.78    1.07    1.00
  YS02001619YS02001622 CONDUIT   1053.87     0  01:53      1.34    1.55    1.00
  YS02001622YS02001625 CONDUIT   1053.66     0  01:53      1.34    0.56    1.00
  YS02001625YS02001629 CONDUIT    921.85     0  01:39      1.19    0.44    1.00
  YS02001629YS02163301 CONDUIT    918.39     0  01:42      1.17    1.13    1.00
  YS02001633YS02163601 CONDUIT   1365.41     0  01:42      1.74    1.43    1.00
  YS02001641YS02001644 CONDUIT   1364.50     0  01:42      1.74    4.41    1.00
  YS02001644YS02001647 CONDUIT   1768.06     0  01:42      2.25    1.04    1.00
  YS02001647YS02001649 CONDUIT   1777.79     0  01:42      2.31    0.94    1.00
  YS02001649YS02001757 CONDUIT   1958.53     0  01:42      2.50    1.19    1.00
  YS02001652YS02001649 CONDUIT   1126.46     0  01:50      1.43    0.56    1.00
  YS02001655YS02001652 CONDUIT   1126.13     0  01:50      1.43    0.55    1.00
  YS02001658YS02001655 CONDUIT   1126.08     0  01:50      1.89    0.48    1.00
  YS02001661YS02001658 CONDUIT   1126.00     0  01:50      2.29    0.44    1.00
  YS02001664YS02001661 CONDUIT   1125.75     0  01:50      2.27    0.35    0.87
  YS02001745YS02001748 CONDUIT    714.66     0  01:50      2.15    0.28    0.96
  YS02001748YS02001751 CONDUIT    715.47     0  01:50      1.68    0.36    1.00
  YS02001751YS02001754 CONDUIT    715.81     0  01:50      1.44    0.35    1.00
  YS02001754YS02001757 CONDUIT    716.13     0  01:50      0.91    0.29    1.00
  YS02001757CaochengTiaoxuchi CONDUIT   3274.46     0  01:48      4.17    1.42    1.00
  YS02001759YS02001757 CONDUIT   1387.02     0  01:49      1.77    0.99    1.00
  YS02001762YS02001759 CONDUIT    722.77     0  01:45      0.92    0.83    1.00
  YS02001765YS02001762 CONDUIT    722.29     0  01:45      0.92    0.68    1.00
  YS02001767YS02001765 CONDUIT    722.70     0  01:45      0.92    0.91    1.00
  YS02001770YS02001767 CONDUIT    723.39     0  01:45      0.92    2.87    1.00
  YS02001774YS02001770 CONDUIT    851.28     0  01:52      1.08    0.54    1.00
  YS02001779YS02001774 CONDUIT    851.03     0  01:52      1.08    0.43    1.00
  YS02001783YS02001784 CONDUIT   1169.52     0  01:48      2.33    1.61    1.00
  YS02001784YS02001785 CONDUIT   1171.00     0  01:48      2.33    2.73    1.00
  YS02001786YS02001788 CONDUIT   1171.50     0  01:48      2.49    2.26    0.89
  YS02001788YS02001790 CONDUIT   1180.67     0  01:47      2.72    0.87    0.84
  YS02001790YS02001791 CONDUIT   1298.84     0  01:47      3.44    1.41    0.71
  YS02001791YS02001793 CONDUIT   1254.31     0  01:46      6.77    0.54    0.45
  YS02001793JiankangQianchi CONDUIT   1289.99     0  01:50      2.56    0.10    0.65
  YS02001882YS02001884 CONDUIT     49.89     0  01:40      0.18    0.06    1.00
  YS02001884YS02001887 CONDUIT     81.69     0  01:40      0.13    0.11    1.00
  YS02001887YS02001890 CONDUIT   1061.72     0  01:50      1.35    1.82    1.00
  YS02001890YS02001895 CONDUIT    517.82     0  01:59      0.66    0.24    1.00
  YS02001895YS02001898 CONDUIT    518.12     0  01:59      0.66    0.90    1.00
  YS02001898YS02001901 CONDUIT    517.77     0  01:59      0.66    0.33    1.00
  YS02001901YS02001904 CONDUIT    517.97     0  01:59      0.66    0.80    1.00
  YS02001904YS02001907 CONDUIT    518.51     0  01:59      0.66    0.18    1.00
  YS02001907YS02006553 CONDUIT    792.85     0  02:16      0.88    0.93    1.00
  YS02001910YS02001907 CONDUIT   1868.67     0  01:51      2.38    1.05    1.00
  YS02001915YS02001910 CONDUIT   1868.97     0  01:51      2.38    0.93    1.00
  YS02001918YS02001915 CONDUIT    617.14     0  01:51      0.79    0.34    1.00
  YS02001920YS02001918 CONDUIT    617.34     0  01:51      0.79    0.60    1.00
  YS02001923YS02001920 CONDUIT    614.37     0  01:51      0.78    0.28    1.00
  YS02001926YS02001923 CONDUIT    613.80     0  01:51      0.95    0.88    1.00
  YS02001929YS02001926 CONDUIT    613.40     0  01:52      1.12    0.29    1.00
  YS02006553YS02006556 CONDUIT    792.64     0  02:17      1.01    0.68    1.00
  YS02006556YS02006558 CONDUIT    793.76     0  02:16      1.01    0.63    1.00
  YS02006558YS02006561 CONDUIT   1169.46     0  01:48      4.14    2.58    1.00
  YS02006561YS02001783 CONDUIT   1169.46     0  01:48      2.33    0.61    1.00
  YS02163301YS02001633 CONDUIT    918.36     0  01:42      1.17    0.86    1.00
  YS02163601YS02164001 CONDUIT   1365.37     0  01:42      1.74    1.21    1.00
  YS02164001YS02001641 CONDUIT   1364.51     0  01:42      1.74    1.86    1.00
  CC-R1                PUMP       683.00     0  00:00              1.00
  CC-R2                PUMP       683.00     0  00:00              1.00
  CC-S1                PUMP       200.00     0  00:00              1.00
  CC-S2                PUMP       200.00     0  00:00              1.00
  JK-R1                PUMP      1000.00     0  00:00              1.00
  JK-R2                PUMP      1000.00     0  00:00              1.00
  JK-S                 PUMP       300.00     0  00:00              1.00
  
  
  ***************************
  Flow Classification Summary
  ***************************
  
  -------------------------------------------------------------------------------------
                      Adjusted    ---------- Fraction of Time in Flow Class ---------- 
                       /Actual         Up    Down  Sub   Sup   Up    Down  Norm  Inlet 
  Conduit               Length    Dry  Dry   Dry   Crit  Crit  Crit  Crit  Ltd   Ctrl  
  -------------------------------------------------------------------------------------
  1                       1.00   0.00  0.00  0.00  0.00  1.00  0.00  0.00  0.40  0.00
  WS02003060WS02003069    1.00   0.00  0.00  0.00  0.99  0.01  0.00  0.00  0.64  0.00
  WS02003066WSF200        1.00   0.13  0.00  0.00  0.00  0.87  0.00  0.00  0.74  0.00
  WS02003067WS02003066    1.00   0.10  0.02  0.00  0.88  0.00  0.00  0.00  0.00  0.00
  WS02003069WS02003072    1.00   0.00  0.00  0.00  0.99  0.01  0.00  0.00  0.72  0.00
  WS02003072WS02003073    1.00   0.00  0.00  0.00  0.00  0.00  0.00  1.00  0.00  0.00
  WS02004401WS02004402    1.00   0.02  0.00  0.00  0.98  0.00  0.00  0.00  0.00  0.00
  WS02004402WS02004403    1.00   0.02  0.00  0.00  0.97  0.00  0.00  0.00  0.00  0.00
  WS02004403WS02004404    1.00   0.00  0.03  0.00  0.97  0.00  0.00  0.00  0.00  0.00
  WS02004404WS02004405    1.00   0.00  0.00  0.00  1.00  0.00  0.00  0.00  0.00  0.00
  WS02004405WS02004406    1.00   0.00  0.00  0.00  1.00  0.00  0.00  0.00  0.00  0.00
  WS02004406WS02004407    1.00   0.00  0.05  0.00  0.95  0.00  0.00  0.00  0.00  0.00
  WS02004407WS02004409    1.00   0.05  0.00  0.00  0.94  0.01  0.00  0.00  0.94  0.00
  WS02004409WS02004410    1.00   0.05  0.00  0.00  0.95  0.00  0.00  0.00  0.03  0.00
  WS02004410WS02004411    1.00   0.05  0.00  0.00  0.95  0.00  0.00  0.00  0.01  0.00
  WS02004411WS02004412    1.00   0.05  0.00  0.00  0.95  0.00  0.00  0.00  0.00  0.00
  WS02004412WS02004413    1.00   0.05  0.00  0.00  0.94  0.00  0.00  0.00  0.01  0.00
  WS02004413WS02003067    1.00   0.06  0.04  0.00  0.00  0.00  0.90  0.00  0.00  0.00
  WS02006109WS02006110    1.00   0.00  0.01  0.00  0.98  0.00  0.01  0.00  0.00  0.00
  WS02006110WS02006113    1.00   0.01  0.01  0.00  0.98  0.00  0.00  0.00  0.00  0.00
  WS02006111WS02006112    1.00   0.02  0.00  0.00  0.98  0.00  0.00  0.00  0.98  0.00
  WS02006112WS02006115    1.00   0.02  0.00  0.00  0.97  0.00  0.00  0.00  0.00  0.00
  WS02006113WS02006111    1.00   0.02  0.00  0.00  0.00  0.98  0.00  0.00  0.16  0.00
  WS02006115WS02006116    1.00   0.02  0.00  0.00  0.97  0.00  0.00  0.01  0.00  0.00
  WS02006116WS02004401    1.00   0.02  0.00  0.00  0.98  0.00  0.00  0.00  0.00  0.00
  WS02006228WS02006109    1.00   0.00  0.00  0.00  1.00  0.00  0.00  0.00  0.00  0.00
  WS02006229WS02006228    1.00   0.00  0.00  0.00  0.99  0.00  0.00  0.01  0.00  0.00
  WS02006230WS02006229    1.00   0.00  0.00  0.00  0.99  0.00  0.00  0.01  0.01  0.00
  WS02006231WS02006230    1.00   0.00  0.00  0.00  0.29  0.00  0.71  0.00  0.00  0.00
  WS02006232WS02006231    1.00   0.00  0.00  0.00  0.99  0.00  0.01  0.00  0.00  0.00
  WS02006234WS02006232    1.00   0.00  0.00  0.00  1.00  0.00  0.00  0.00  0.08  0.00
  WS02006235WS02006234    1.00   0.00  0.00  0.00  0.88  0.00  0.12  0.00  0.00  0.00
  WS02006238WS02006235    1.00   0.00  0.00  0.00  1.00  0.00  0.00  0.00  0.00  0.00
  WS02006239WS02006238    1.00   0.00  0.00  0.00  1.00  0.00  0.00  0.00  0.19  0.00
  WS02006240WS02006239    1.00   0.00  0.00  0.00  0.74  0.00  0.00  0.25  0.02  0.00
  WS02006242WS02006240    1.00   0.00  0.00  0.00  0.99  0.00  0.01  0.00  0.00  0.00
  WS02006243WS02006242    1.00   0.00  0.00  0.00  0.99  0.00  0.00  0.01  0.38  0.00
  WS02006245WS02006243    1.00   0.00  0.00  0.00  0.83  0.00  0.00  0.17  0.02  0.00
  WS02006247WS02006245    1.00   0.00  0.00  0.00  0.98  0.00  0.00  0.01  0.00  0.00
  WS02006248WS02006247    1.00   0.00  0.00  0.00  0.99  0.00  0.00  0.01  0.25  0.00
  WS02006249WS02006248    1.00   0.00  0.00  0.00  0.61  0.00  0.39  0.00  0.00  0.00
  WS02006251WS02006249    1.00   0.00  0.00  0.00  0.99  0.01  0.00  0.00  0.41  0.00
  WS02006252WS02006251    1.00   0.00  0.44  0.00  0.15  0.00  0.42  0.00  0.00  0.00
  WS02006256WS02006235    1.00   0.00  0.00  0.00  0.99  0.01  0.00  0.00  0.00  0.00
  WSF200WS02003060        1.00   0.00  0.13  0.00  0.17  0.70  0.00  0.00  0.34  0.00
  YS02001580YS02001583    1.00   0.20  0.55  0.00  0.25  0.00  0.00  0.00  0.64  0.00
  YS02001583YS02001586    1.00   0.40  0.29  0.00  0.30  0.00  0.00  0.00  0.64  0.00
  YS02001586YS02001590    1.00   0.13  0.00  0.00  0.45  0.04  0.00  0.38  0.33  0.00
  YS02001590YS02001593    1.00   0.13  0.01  0.00  0.18  0.00  0.69  0.00  0.00  0.00
  YS02001593YS02001596    1.00   0.13  0.00  0.00  0.20  0.01  0.00  0.67  0.02  0.00
  YS02001596YS02001600    1.00   0.13  0.00  0.00  0.24  0.01  0.00  0.62  0.03  0.00
  YS02001600YS02001601    1.00   0.13  0.01  0.00  0.87  0.00  0.00  0.00  0.58  0.00
  YS02001601YS02001602    1.00   0.13  0.01  0.00  0.87  0.00  0.00  0.00  0.00  0.00
  YS02001602YS02001605    1.00   0.13  0.00  0.00  0.87  0.00  0.00  0.00  0.00  0.00
  YS02001605YS02001607    1.00   0.13  0.00  0.00  0.87  0.00  0.00  0.00  0.00  0.00
  YS02001607YS02001610    1.00   0.13  0.00  0.00  0.86  0.00  0.00  0.00  0.01  0.00
  YS02001610YS02001613    1.00   0.13  0.00  0.00  0.87  0.00  0.00  0.00  0.00  0.00
  YS02001613YS02001616    1.00   0.13  0.00  0.00  0.87  0.00  0.00  0.00  0.00  0.00
  YS02001616YS02001619    1.00   0.13  0.00  0.00  0.87  0.00  0.00  0.00  0.00  0.00
  YS02001619YS02001622    1.00   0.13  0.00  0.00  0.87  0.00  0.00  0.00  0.28  0.00
  YS02001622YS02001625    1.00   0.13  0.00  0.00  0.87  0.00  0.00  0.00  0.03  0.00
  YS02001625YS02001629    1.00   0.13  0.04  0.00  0.22  0.00  0.62  0.00  0.00  0.00
  YS02001629YS02163301    1.00   0.14  0.01  0.00  0.85  0.00  0.00  0.00  0.00  0.00
  YS02001633YS02163601    1.00   0.00  0.01  0.00  0.99  0.00  0.00  0.00  0.14  0.00
  YS02001641YS02001644    1.00   0.00  0.01  0.00  0.99  0.00  0.00  0.00  0.00  0.00
  YS02001644YS02001647    1.00   0.00  0.16  0.00  0.84  0.00  0.00  0.00  0.00  0.00
  YS02001647YS02001649    1.00   0.00  0.16  0.00  0.60  0.24  0.00  0.00  0.55  0.00
  YS02001649YS02001757    1.00   0.00  0.00  0.00  0.88  0.12  0.00  0.00  0.38  0.00
  YS02001652YS02001649    1.00   0.00  0.00  0.00  0.98  0.02  0.00  0.00  0.70  0.00
  YS02001655YS02001652    1.00   0.00  0.00  0.00  0.24  0.01  0.00  0.75  0.03  0.00
  YS02001658YS02001655    1.00   0.00  0.14  0.00  0.73  0.14  0.00  0.00  0.61  0.00
  YS02001661YS02001658    1.00   0.14  0.00  0.00  0.57  0.30  0.00  0.00  0.65  0.00
  YS02001664YS02001661    1.00   0.13  0.00  0.00  0.79  0.08  0.00  0.00  0.82  0.00
  YS02001745YS02001748    1.00   0.00  0.00  0.00  0.17  0.00  0.00  0.82  0.05  0.00
  YS02001748YS02001751    1.00   0.00  0.00  0.00  0.88  0.12  0.00  0.00  0.73  0.00
  YS02001751YS02001754    1.00   0.00  0.00  0.00  0.23  0.00  0.00  0.77  0.02  0.00
  YS02001754YS02001757    1.00   0.00  0.00  0.00  1.00  0.00  0.00  0.00  0.76  0.00
  YS02001757CaochengTiaoxuchi    1.00   0.00  0.00  0.00  0.98  0.02  0.00  0.00  0.60  0.00
  YS02001759YS02001757    1.00   0.00  0.00  0.00  0.98  0.02  0.00  0.00  0.52  0.00
  YS02001762YS02001759    1.00   0.00  0.00  0.00  1.00  0.00  0.00  0.00  0.04  0.00
  YS02001765YS02001762    1.00   0.00  0.00  0.00  1.00  0.00  0.00  0.00  0.66  0.00
  YS02001767YS02001765    1.00   0.00  0.00  0.00  1.00  0.00  0.00  0.00  0.00  0.00
  YS02001770YS02001767    1.00   0.00  0.00  0.00  1.00  0.00  0.00  0.00  0.00  0.00
  YS02001774YS02001770    1.00   0.00  0.13  0.00  0.71  0.00  0.16  0.00  0.02  0.00
  YS02001779YS02001774    1.00   0.00  0.00  0.00  1.00  0.00  0.00  0.00  0.72  0.00
  YS02001783YS02001784    1.00   0.00  0.16  0.00  0.84  0.00  0.00  0.00  0.54  0.00
  YS02001784YS02001785    1.00   0.00  0.00  0.00  1.00  0.00  0.00  0.00  0.15  0.00
  YS02001786YS02001788    1.00   0.00  0.00  0.00  0.80  0.20  0.00  0.00  0.00  0.00
  YS02001788YS02001790    1.00   0.00  0.00  0.00  0.21  0.79  0.00  0.00  0.77  0.00
  YS02001790YS02001791    1.00   0.00  0.00  0.00  0.01  0.99  0.00  0.00  0.16  0.00
  YS02001791YS02001793    1.00   0.00  0.00  0.00  0.00  1.00  0.00  0.00  0.01  0.00
  YS02001793JiankangQianchi    1.00   0.00  0.00  0.00  0.95  0.05  0.00  0.00  0.95  0.00
  YS02001882YS02001884    1.00   0.14  0.00  0.00  0.85  0.00  0.00  0.00  0.00  0.00
  YS02001884YS02001887    1.00   0.06  0.05  0.00  0.89  0.00  0.00  0.00  0.00  0.00
  YS02001887YS02001890    1.00   0.00  0.00  0.00  0.97  0.00  0.03  0.00  0.00  0.00
  YS02001890YS02001895    1.00   0.00  0.15  0.00  0.85  0.00  0.00  0.00  0.00  0.00
  YS02001895YS02001898    1.00   0.15  0.00  0.00  0.84  0.00  0.01  0.00  0.00  0.00
  YS02001898YS02001901    1.00   0.15  0.00  0.00  0.85  0.00  0.00  0.00  0.00  0.00
  YS02001901YS02001904    1.00   0.15  0.00  0.00  0.85  0.00  0.00  0.00  0.00  0.00
  YS02001904YS02001907    1.00   0.00  0.15  0.00  0.85  0.00  0.00  0.00  0.00  0.00
  YS02001907YS02006553    1.00   0.00  0.02  0.00  0.98  0.00  0.00  0.00  0.00  0.00
  YS02001910YS02001907    1.00   0.00  0.00  0.00  0.97  0.00  0.00  0.03  0.11  0.00
  YS02001915YS02001910    1.00   0.00  0.00  0.00  0.97  0.03  0.00  0.00  0.13  0.00
  YS02001918YS02001915    1.00   0.00  0.01  0.00  0.98  0.02  0.00  0.00  0.70  0.00
  YS02001920YS02001918    1.00   0.00  0.01  0.00  0.99  0.00  0.00  0.00  0.00  0.00
  YS02001923YS02001920    1.00   0.00  0.00  0.00  1.00  0.00  0.00  0.00  0.89  0.00
  YS02001926YS02001923    1.00   0.00  0.07  0.00  0.09  0.00  0.83  0.00  0.00  0.00
  YS02001929YS02001926    1.00   0.00  0.13  0.00  0.87  0.00  0.00  0.00  0.79  0.00
  YS02006553YS02006556    1.00   0.01  0.00  0.00  0.99  0.00  0.00  0.00  0.03  0.00
  YS02006556YS02006558    1.00   0.00  0.00  0.00  1.00  0.00  0.00  0.00  0.00  0.00
  YS02006558YS02006561    1.00   0.16  0.00  0.00  0.09  0.75  0.00  0.00  0.16  0.00
  YS02006561YS02001783    1.00   0.16  0.00  0.00  0.13  0.71  0.00  0.00  0.64  0.00
  YS02163301YS02001633    1.00   0.00  0.14  0.00  0.86  0.00  0.00  0.00  0.00  0.00
  YS02163601YS02164001    1.00   0.00  0.08  0.00  0.92  0.00  0.00  0.00  0.00  0.00
  YS02164001YS02001641    1.00   0.01  0.07  0.00  0.92  0.00  0.00  0.00  0.05  0.00
  
  
  *************************
  Conduit Surcharge Summary
  *************************
  
  ----------------------------------------------------------------------------
                                                           Hours        Hours 
                         --------- Hours Full --------   Above Full   Capacity
  Conduit                Both Ends  Upstream  Dnstream   Normal Flow   Limited
  ----------------------------------------------------------------------------
  WS02003072WS02003073        0.01      0.01      0.01      1.43         0.01
  WS02004404WS02004405        0.01      0.01      0.01      4.55         0.01
  WS02004405WS02004406        0.01      0.01      0.01      0.92         0.01
  WS02006109WS02006110        0.96      0.96      2.14      1.07         0.01
  WS02006110WS02006113        0.01      0.01      2.12      0.01         0.01
  WS02006111WS02006112        0.01      0.01      2.60      0.01         0.01
  WS02006112WS02006115        0.01      0.01      0.99      0.01         0.01
  WS02006228WS02006109        2.10      2.14      2.10      2.96         2.10
  WS02006229WS02006228        2.10      2.11      2.10      2.46         2.08
  WS02006230WS02006229        2.20      2.38      2.20      5.25         2.20
  WS02006231WS02006230        0.98      0.98      1.15      4.86         0.01
  WS02006232WS02006231        1.09      1.09      2.14      1.17         0.01
  WS02006234WS02006232        2.06      2.06      2.14      1.15         1.15
  WS02006235WS02006234        1.44      1.44      2.07      4.67         0.02
  WS02006238WS02006235        2.09      2.09      2.14      0.01         0.01
  WS02006239WS02006238        2.10      2.12      2.11      2.33         1.89
  WS02006240WS02006239        2.08      2.10      2.09      2.32         1.77
  WS02006242WS02006240        2.10      2.10      2.19      2.58         0.01
  WS02006243WS02006242        2.10      2.10      2.12      0.01         0.04
  WS02006245WS02006243        2.08      2.09      2.09      1.33         1.20
  WS02006247WS02006245        2.08      2.09      2.08      4.44         2.07
  WS02006248WS02006247        2.07      2.07      2.09      0.01         0.05
  WS02006249WS02006248        2.07      2.07      2.07      4.41         0.01
  WS02006251WS02006249        2.06      2.06      2.07      2.42         2.00
  WS02006252WS02006251        2.49      2.49      2.49      2.49         0.01
  WS02006256WS02006235        4.71      4.75      6.48      1.45         0.01
  YS02001580YS02001583        0.96      0.96      1.04      0.01         0.01
  YS02001583YS02001586        0.97      0.97      1.18      0.01         0.01
  YS02001586YS02001590        1.18      1.18      1.28      0.01         0.01
  YS02001590YS02001593        1.28      1.28      1.30      1.33         0.01
  YS02001593YS02001596        1.30      1.30      1.43      0.01         0.01
  YS02001596YS02001600        1.48      1.48      1.56      0.01         0.01
  YS02001600YS02001601        1.60      1.60      1.80      0.01         0.01
  YS02001601YS02001602        1.73      1.73      1.83      1.55         0.01
  YS02001602YS02001605        1.69      1.69      1.73      2.49         0.01
  YS02001605YS02001607        1.66      1.69      1.67      1.75         1.65
  YS02001607YS02001610        1.31      1.31      1.35      0.01         0.01
  YS02001610YS02001613        1.31      1.31      1.35      0.01         0.01
  YS02001613YS02001616        1.26      1.26      1.31      0.01         0.01
  YS02001616YS02001619        1.24      1.24      1.26      0.10         0.12
  YS02001619YS02001622        1.24      1.24      1.24      1.19         1.09
  YS02001622YS02001625        1.24      1.24      1.44      0.01         0.01
  YS02001625YS02001629        1.17      1.17      1.44      0.01         0.01
  YS02001629YS02163301        1.45      1.45      1.46      0.06         0.11
  YS02001633YS02163601        1.48      1.48      1.51      0.14         0.19
  YS02001641YS02001644        1.42      1.44      1.42      1.86         1.41
  YS02001644YS02001647        1.19      1.19      1.42      0.03         0.01
  YS02001647YS02001649        1.19      1.19      1.35      0.01         0.01
  YS02001649YS02001757        1.34      1.35      1.41      0.08         0.03
  YS02001652YS02001649        1.15      1.15      1.35      0.01         0.01
  YS02001655YS02001652        0.89      0.89      1.12      0.01         0.01
  YS02001658YS02001655        0.47      0.47      0.89      0.01         0.01
  YS02001661YS02001658        0.14      0.14      0.47      0.01         0.01
  YS02001664YS02001661        0.01      0.01      0.22      0.01         0.01
  YS02001745YS02001748        0.01      0.01      0.36      0.01         0.01
  YS02001748YS02001751        0.42      0.42      0.71      0.01         0.01
  YS02001751YS02001754        0.71      0.71      1.03      0.01         0.01
  YS02001754YS02001757        1.08      1.08      1.41      0.01         0.01
  YS02001757CaochengTiaoxuchi        1.40      1.41      2.09      0.50         0.46
  YS02001759YS02001757        1.34      1.34      1.41      0.01         0.03
  YS02001762YS02001759        1.31      1.31      1.34      0.01         0.02
  YS02001765YS02001762        1.26      1.26      1.31      0.01         0.01
  YS02001767YS02001765        1.21      1.21      1.26      0.01         0.02
  YS02001770YS02001767        1.21      1.21      1.21      0.81         0.74
  YS02001774YS02001770        1.17      1.17      1.29      0.01         0.01
  YS02001779YS02001774        1.01      1.01      1.29      0.01         0.01
  YS02001783YS02001784        0.77      0.80      0.77      0.99         0.77
  YS02001784YS02001785        0.63      0.77      0.63      1.36         0.63
  YS02001786YS02001788        0.01      0.63      0.01      1.15         0.01
  YS02001790YS02001791        0.01      0.01      0.01      0.75         0.01
  YS02001793JiankangQianchi        0.01      0.01      7.65      0.01         0.01
  YS02001882YS02001884        0.73      0.73      0.74      0.01         0.01
  YS02001884YS02001887        0.77      0.77      0.79      0.01         0.01
  YS02001887YS02001890        0.81      0.81      0.82      0.21         0.01
  YS02001890YS02001895        0.72      0.72      0.85      0.01         0.01
  YS02001895YS02001898        0.71      0.71      0.72      0.01         0.01
  YS02001898YS02001901        0.72      0.72      0.77      0.01         0.01
  YS02001901YS02001904        0.76      0.76      0.77      0.01         0.01
  YS02001904YS02001907        0.76      0.76      1.12      0.01         0.01
  YS02001907YS02006553        1.37      1.37      1.47      0.01         0.01
  YS02001910YS02001907        0.84      0.84      1.09      0.07         0.07
  YS02001915YS02001910        0.73      0.73      0.84      0.01         0.01
  YS02001918YS02001915        0.62      0.62      0.73      0.01         0.01
  YS02001920YS02001918        0.62      0.62      0.64      0.01         0.01
  YS02001923YS02001920        0.57      0.57      0.64      0.01         0.01
  YS02001926YS02001923        0.23      0.23      0.26      0.01         0.01
  YS02001929YS02001926        0.10      0.10      0.26      0.01         0.01
  YS02006553YS02006556        0.96      0.96      1.12      0.01         0.01
  YS02006556YS02006558        1.02      1.02      1.15      0.01         0.01
  YS02006558YS02006561        0.66      0.95      0.66      1.28         0.66
  YS02006561YS02001783        0.58      0.58      0.80      0.01         0.01
  YS02163301YS02001633        1.46      1.46      1.49      0.01         0.01
  YS02163601YS02164001        1.44      1.44      1.51      0.08         0.01
  YS02164001YS02001641        1.44      1.44      1.44      0.88         0.81
  
  
  ***************
  Pumping Summary
  ***************
  
  ---------------------------------------------------------------------------------------------------------
                                                  Min       Avg       Max     Total     Power    % Time Off
                        Percent   Number of      Flow      Flow      Flow    Volume     Usage    Pump Curve
  Pump                 Utilized   Start-Ups       LPS       LPS       LPS  10^6 ltr     Kw-hr    Low   High
  ---------------------------------------------------------------------------------------------------------
  CC-R1                   23.52           4      0.00    683.00    683.00     4.626     89.28    0.0    8.2
  CC-R2                   22.71           2      0.00    683.00    683.00     4.467     86.36    0.0    8.3
  CC-S1                   51.89           8      0.00    200.00    200.00     2.989     16.88    0.0    0.0
  CC-S2                   35.29          11      0.00    200.00    200.00     2.033     11.07    0.0    0.0
  JK-R1                    8.45          14      0.00   1000.00   1000.00     2.434     25.76    0.0    0.0
  JK-R2                    4.54           9      0.00   1000.00   1000.00     1.309     11.63    0.0    0.0
  JK-S                    18.04          17      0.00    300.00    300.00     1.558     24.06    0.0    0.0
  

  Analysis begun on:  Wed Jan 15 10:36:00 2025
  Analysis ended on:  Wed Jan 15 10:36:02 2025
  Total elapsed time: 00:00:02